SandboxData_C2S7_20210305/C2S7N02312/scenario_136/case.raw
0,100.0,33,0,0,50.0
GRID OPTIMIZATION COMPETITION CHALLENGE 2
INPUT DATA FILES ARE RAW JSON CON
1,'            ',345.0,1,1,1,1,0.87881389,-32.37396429,2.2,0.45,2.2,0.45
2,'            ',345.0,1,1,1,1,0.87853383,-32.37546252,2.2,0.45,2.2,0.45
3,'            ',345.0,1,1,1,1,0.8960384,-29.24735906,2.2,0.45,2.2,0.45
4,'            ',345.0,1,1,1,1,0.8961088,-29.23826374,2.2,0.45,2.2,0.45
5,'            ',345.0,1,1,1,1,0.93621869,-31.30566707,2.2,0.45,2.2,0.45
6,'            ',345.0,1,1,1,1,0.93631026,-31.29710971,2.2,0.45,2.2,0.45
7,'            ',345.0,1,1,1,1,0.87916797,-30.96286475,2.2,0.45,2.2,0.45
8,'            ',345.0,1,1,1,1,0.87924368,-30.95371681,2.2,0.45,2.2,0.45
9,'            ',345.0,1,1,1,1,0.90419819,-32.38207285,2.2,0.45,2.2,0.45
10,'            ',345.0,1,1,1,1,0.9038848,-32.37475275,2.2,0.45,2.2,0.45
11,'            ',138.0,1,1,1,1,0.86064337,-31.53200923,2.2,0.45,2.2,0.45
12,'            ',138.0,1,1,1,1,0.90847257,-31.9714141,2.2,0.45,2.2,0.45
13,'            ',138.0,1,1,1,1,0.91971105,-31.71050486,2.2,0.45,2.2,0.45
14,'            ',138.0,1,1,1,1,0.90615737,-31.46496039,2.2,0.45,2.2,0.45
15,'            ',138.0,1,1,1,1,0.86237903,-31.28378398,2.2,0.45,2.2,0.45
16,'            ',138.0,1,1,1,1,0.86238111,-31.28355475,2.2,0.45,2.2,0.45
17,'            ',138.0,1,1,1,1,0.8798147,-31.71552006,2.2,0.45,2.2,0.45
18,'            ',138.0,1,1,1,1,0.8998248,-30.976707,2.2,0.45,2.2,0.45
19,'            ',138.0,1,1,1,1,0.90004627,-30.96238878,2.2,0.45,2.2,0.45
20,'            ',138.0,1,1,1,1,0.88049295,-31.66259666,2.2,0.45,2.2,0.45
21,'            ',138.0,1,1,1,1,0.81967057,-32.41508661,2.2,0.45,2.2,0.45
22,'            ',138.0,1,1,1,1,0.82022194,-32.39768806,2.2,0.45,2.2,0.45
23,'            ',138.0,1,1,1,1,0.85880575,-33.30934474,2.2,0.45,2.2,0.45
24,'            ',138.0,2,1,1,1,0.95524711,-30.45711923,2.2,0.45,2.2,0.45
25,'            ',138.0,1,1,1,1,0.88107291,-31.62502149,2.2,0.45,2.2,0.45
26,'            ',138.0,1,1,1,1,0.88003656,-31.62827737,2.2,0.45,2.2,0.45
27,'            ',138.0,1,1,1,1,0.87168532,-31.46567258,2.2,0.45,2.2,0.45
28,'            ',138.0,1,1,1,1,0.87189514,-31.4530891,2.2,0.45,2.2,0.45
29,'            ',138.0,1,1,1,1,0.88961506,-31.39123428,2.2,0.45,2.2,0.45
30,'            ',138.0,1,1,1,1,0.88963179,-31.39011087,2.2,0.45,2.2,0.45
31,'            ',138.0,1,1,1,1,0.82117834,-35.13811264,2.2,0.45,2.2,0.45
32,'            ',138.0,1,1,1,1,0.821327,-35.15605156,2.2,0.45,2.2,0.45
33,'            ',138.0,1,1,1,1,0.90157939,-30.53118415,2.2,0.45,2.2,0.45
34,'            ',138.0,1,1,1,1,0.90176995,-30.52104605,2.2,0.45,2.2,0.45
35,'            ',138.0,1,1,1,1,0.87575228,-31.5382285,2.2,0.45,2.2,0.45
36,'            ',138.0,1,1,1,1,0.88408928,-31.55003504,2.2,0.45,2.2,0.45
37,'            ',138.0,1,1,1,1,0.87575944,-31.53770831,2.2,0.45,2.2,0.45
38,'            ',138.0,1,1,1,1,0.88408921,-31.55003304,2.2,0.45,2.2,0.45
39,'            ',138.0,1,1,1,1,0.99530009,-35.93645107,2.2,0.45,2.2,0.45
40,'            ',138.0,1,1,1,1,0.89721735,-31.65066205,2.2,0.45,2.2,0.45
41,'            ',138.0,1,1,1,1,0.89699508,-31.65701969,2.2,0.45,2.2,0.45
42,'            ',138.0,1,1,1,1,0.86160384,-30.70896957,2.2,0.45,2.2,0.45
43,'            ',138.0,1,1,1,1,0.86162816,-30.7069509,2.2,0.45,2.2,0.45
44,'            ',138.0,1,1,1,1,0.8080387,-32.51991758,2.2,0.45,2.2,0.45
45,'            ',138.0,1,1,1,1,0.8080248,-32.53826265,2.2,0.45,2.2,0.45
46,'            ',138.0,2,1,1,1,0.88837012,-31.38943424,2.2,0.45,2.2,0.45
47,'            ',138.0,1,1,1,1,0.81505711,-34.10209395,2.2,0.45,2.2,0.45
48,'            ',138.0,1,1,1,1,0.81493384,-34.1048654,2.2,0.45,2.2,0.45
49,'            ',138.0,1,1,1,1,0.94280347,-34.65868908,2.2,0.45,2.2,0.45
50,'            ',138.0,1,1,1,1,0.9400356,-33.81205259,2.2,0.45,2.2,0.45
51,'            ',138.0,1,1,1,1,0.94003559,-33.81205235,2.2,0.45,2.2,0.45
52,'            ',138.0,1,1,1,1,0.81032806,-33.73987332,2.2,0.45,2.2,0.45
53,'            ',138.0,1,1,1,1,0.86326661,-30.22694815,2.2,0.45,2.2,0.45
54,'            ',138.0,1,1,1,1,0.87108397,-31.2120431,2.2,0.45,2.2,0.45
55,'            ',138.0,1,1,1,1,0.87073619,-31.22521866,2.2,0.45,2.2,0.45
56,'            ',138.0,1,1,1,1,0.94074784,-33.87639025,2.2,0.45,2.2,0.45
57,'            ',138.0,1,1,1,1,0.94034338,-33.85647769,2.2,0.45,2.2,0.45
58,'            ',138.0,1,1,1,1,0.85967146,-31.27031122,2.2,0.45,2.2,0.45
59,'            ',138.0,1,1,1,1,0.92092372,-31.63829643,2.2,0.45,2.2,0.45
60,'            ',138.0,1,1,1,1,0.8115178,-34.12481145,2.2,0.45,2.2,0.45
61,'            ',138.0,1,1,1,1,0.81153615,-34.12285064,2.2,0.45,2.2,0.45
62,'            ',138.0,1,1,1,1,0.8998332,-30.97597626,2.2,0.45,2.2,0.45
63,'            ',138.0,1,1,1,1,0.90005123,-30.9619847,2.2,0.45,2.2,0.45
64,'            ',138.0,1,1,1,1,0.8671767,-31.30168185,2.2,0.45,2.2,0.45
65,'            ',138.0,1,1,1,1,0.88969486,-31.38757408,2.2,0.45,2.2,0.45
66,'            ',138.0,1,1,1,1,0.94372945,-34.29382901,2.2,0.45,2.2,0.45
67,'            ',138.0,1,1,1,1,0.94336893,-34.31312961,2.2,0.45,2.2,0.45
68,'            ',138.0,2,1,1,1,0.91961146,-30.09451983,2.2,0.45,2.2,0.45
69,'            ',138.0,1,1,1,1,0.8173518,-34.04816754,2.2,0.45,2.2,0.45
70,'            ',138.0,1,1,1,1,0.80512982,-32.86488882,2.2,0.45,2.2,0.45
71,'            ',345.0,1,1,1,1,0.79685717,-33.59228824,2.2,0.45,2.2,0.45
72,'            ',345.0,1,1,1,1,0.79685717,-33.59228824,2.2,0.45,2.2,0.45
73,'            ',345.0,1,1,1,1,0.86803031,-28.23771151,2.2,0.45,2.2,0.45
74,'            ',345.0,1,1,1,1,0.86803031,-28.23771151,2.2,0.45,2.2,0.45
75,'            ',345.0,1,1,1,1,0.79687915,-32.48895901,2.2,0.45,2.2,0.45
76,'            ',345.0,2,1,1,1,0.79660679,-32.48669922,2.2,0.45,2.2,0.45
77,'            ',500.0,2,1,1,1,0.79932095,-33.90489524,2.2,0.45,2.2,0.45
78,'            ',345.0,2,1,1,1,0.94997667,-28.44806476,2.2,0.45,2.2,0.45
79,'            ',345.0,1,1,1,1,0.79866689,-32.9675812,2.2,0.45,2.2,0.45
80,'            ',345.0,1,1,1,1,0.79866689,-32.9675812,2.2,0.45,2.2,0.45
81,'            ',345.0,1,1,1,1,0.79547195,-33.63384758,2.2,0.45,2.2,0.45
82,'            ',345.0,1,1,1,1,0.7955392,-33.6337815,2.2,0.45,2.2,0.45
83,'            ',138.0,1,1,1,1,0.74133219,-34.97411903,2.2,0.45,2.2,0.45
84,'            ',138.0,1,1,1,1,0.75568491,-29.44208783,2.2,0.45,2.2,0.45
85,'            ',138.0,1,1,1,1,0.72511612,-33.48401128,2.2,0.45,2.2,0.45
86,'            ',138.0,1,1,1,1,0.7701246,-33.13680477,2.2,0.45,2.2,0.45
87,'            ',138.0,1,1,1,1,0.907592,-32.7653894,2.2,0.45,2.2,0.45
88,'            ',138.0,1,1,1,1,0.95026985,-31.58726615,2.2,0.45,2.2,0.45
89,'            ',138.0,1,1,1,1,0.71251919,-34.59238115,2.2,0.45,2.2,0.45
90,'            ',138.0,1,1,1,1,0.91291569,-32.50542992,2.2,0.45,2.2,0.45
91,'            ',138.0,1,1,1,1,0.96210269,-31.13789984,2.2,0.45,2.2,0.45
92,'            ',138.0,1,1,1,1,0.72521201,-33.47186746,2.2,0.45,2.2,0.45
93,'            ',138.0,1,1,1,1,0.72521201,-33.47186746,2.2,0.45,2.2,0.45
94,'            ',138.0,1,1,1,1,0.79598652,-35.47387997,2.2,0.45,2.2,0.45
95,'            ',138.0,1,1,1,1,0.73677643,-39.13521481,2.2,0.45,2.2,0.45
96,'            ',138.0,1,1,1,1,0.73656619,-34.89358201,2.2,0.45,2.2,0.45
97,'            ',138.0,1,1,1,1,0.73661005,-34.9085936,2.2,0.45,2.2,0.45
98,'            ',138.0,2,1,1,1,0.82248957,-25.92821018,2.2,0.45,2.2,0.45
99,'            ',138.0,2,1,1,1,0.9011538,-27.19838668,2.2,0.45,2.2,0.45
100,'            ',138.0,1,1,1,1,0.71756459,-35.87170084,2.2,0.45,2.2,0.45
101,'            ',138.0,1,1,1,1,0.72183398,-33.77790292,2.2,0.45,2.2,0.45
102,'            ',138.0,1,1,1,1,0.73943687,-35.14069715,2.2,0.45,2.2,0.45
103,'            ',138.0,1,1,1,1,0.82063357,-26.07443954,2.2,0.45,2.2,0.45
104,'            ',138.0,1,1,1,1,0.73947102,-37.41591873,2.2,0.45,2.2,0.45
105,'            ',138.0,1,1,1,1,0.72521316,-33.38522493,2.2,0.45,2.2,0.45
106,'            ',138.0,1,1,1,1,0.69223167,-32.66004868,2.2,0.45,2.2,0.45
107,'            ',138.0,1,1,1,1,0.93422004,-32.02216005,2.2,0.45,2.2,0.45
108,'            ',138.0,1,1,1,1,0.73769257,-34.95713462,2.2,0.45,2.2,0.45
109,'            ',138.0,1,1,1,1,0.68135775,-33.51039324,2.2,0.45,2.2,0.45
110,'            ',138.0,1,1,1,1,0.86220231,-34.25139408,2.2,0.45,2.2,0.45
111,'            ',138.0,1,1,1,1,0.73473482,-36.20309943,2.2,0.45,2.2,0.45
112,'            ',138.0,1,1,1,1,0.68324633,-33.2947212,2.2,0.45,2.2,0.45
113,'            ',138.0,1,1,1,1,0.90891742,-32.50795514,2.2,0.45,2.2,0.45
114,'            ',138.0,1,1,1,1,0.74781667,-29.78768125,2.2,0.45,2.2,0.45
115,'            ',138.0,1,1,1,1,0.77010614,-28.79999222,2.2,0.45,2.2,0.45
116,'            ',138.0,1,1,1,1,0.74136021,-36.70920033,2.2,0.45,2.2,0.45
117,'            ',138.0,1,1,1,1,0.73802073,-40.15465825,2.2,0.45,2.2,0.45
118,'            ',138.0,1,1,1,1,0.7386134,-35.03885834,2.2,0.45,2.2,0.45
119,'            ',138.0,1,1,1,1,0.83968366,-34.73079799,2.2,0.45,2.2,0.45
120,'            ',138.0,1,1,1,1,0.81781884,-34.64907714,2.2,0.45,2.2,0.45
121,'            ',138.0,1,1,1,1,0.8175057,-34.64738669,2.2,0.45,2.2,0.45
122,'            ',138.0,1,1,1,1,0.73504113,-35.33563627,2.2,0.45,2.2,0.45
123,'            ',138.0,1,1,1,1,0.71154864,-34.9543533,2.2,0.45,2.2,0.45
124,'            ',138.0,1,1,1,1,0.74243849,-34.93696501,2.2,0.45,2.2,0.45
125,'            ',138.0,1,1,1,1,0.74301705,-34.92336418,2.2,0.45,2.2,0.45
126,'            ',138.0,1,1,1,1,0.71862551,-31.30241405,2.2,0.45,2.2,0.45
127,'            ',138.0,1,1,1,1,0.74472015,-36.33324747,2.2,0.45,2.2,0.45
128,'            ',138.0,1,1,1,1,0.74449048,-36.34710007,2.2,0.45,2.2,0.45
129,'            ',138.0,1,1,1,1,0.73648975,-34.89866664,2.2,0.45,2.2,0.45
130,'            ',138.0,1,1,1,1,0.90842835,-32.54397432,2.2,0.45,2.2,0.45
131,'            ',138.0,1,1,1,1,0.68257605,-33.35950606,2.2,0.45,2.2,0.45
132,'            ',138.0,1,1,1,1,0.74177044,-36.77264477,2.2,0.45,2.2,0.45
133,'            ',138.0,1,1,1,1,0.74010212,-36.84494985,2.2,0.45,2.2,0.45
134,'            ',138.0,1,1,1,1,0.74059527,-36.79412812,2.2,0.45,2.2,0.45
135,'            ',138.0,2,1,1,1,0.98600388,-30.25376217,2.2,0.45,2.2,0.45
136,'            ',138.0,1,1,1,1,0.73201528,-34.92106823,2.2,0.45,2.2,0.45
137,'            ',138.0,1,1,1,1,0.73599586,-34.94319411,2.2,0.45,2.2,0.45
138,'            ',138.0,1,1,1,1,0.7375013,-39.73215442,2.2,0.45,2.2,0.45
139,'            ',138.0,1,1,1,1,0.73983554,-35.05759594,2.2,0.45,2.2,0.45
140,'            ',138.0,1,1,1,1,0.74175191,-33.36920836,2.2,0.45,2.2,0.45
141,'            ',138.0,1,1,1,1,0.90704634,-32.85092048,2.2,0.45,2.2,0.45
142,'            ',138.0,1,1,1,1,0.74226241,-36.72204934,2.2,0.45,2.2,0.45
143,'            ',138.0,1,1,1,1,0.77077233,-28.64467748,2.2,0.45,2.2,0.45
144,'            ',138.0,1,1,1,1,0.71732949,-34.69319954,2.2,0.45,2.2,0.45
145,'            ',138.0,1,1,1,1,0.68817859,-32.94505366,2.2,0.45,2.2,0.45
146,'            ',138.0,1,1,1,1,0.71233738,-35.26418341,2.2,0.45,2.2,0.45
147,'            ',138.0,1,1,1,1,0.71719874,-34.70482989,2.2,0.45,2.2,0.45
148,'            ',138.0,1,1,1,1,0.73355834,-35.31933202,2.2,0.45,2.2,0.45
149,'            ',138.0,1,1,1,1,0.78070358,-34.28492815,2.2,0.45,2.2,0.45
150,'            ',345.0,2,1,1,1,0.80488269,-33.3545498,2.2,0.45,2.2,0.45
151,'            ',345.0,1,1,1,1,1.0106157,-37.36678661,2.2,0.45,2.2,0.45
152,'            ',500.0,1,1,1,1,1.12208904,-36.88777367,2.2,0.45,2.2,0.45
153,'            ',500.0,1,1,1,1,1.1226346,-36.89392335,2.2,0.45,2.2,0.45
154,'            ',500.0,1,1,1,1,0.99893756,-35.56896663,2.2,0.45,2.2,0.45
155,'            ',500.0,1,1,1,1,0.99900492,-35.54556789,2.2,0.45,2.2,0.45
156,'            ',500.0,1,1,1,1,0.99010525,-38.3985685,2.2,0.45,2.2,0.45
157,'            ',345.0,1,1,1,1,0.88795293,-36.60244515,2.2,0.45,2.2,0.45
158,'            ',500.0,1,1,1,1,0.94541115,-38.40493127,2.2,0.45,2.2,0.45
159,'            ',500.0,1,1,1,1,0.94541115,-38.40493127,2.2,0.45,2.2,0.45
160,'            ',500.0,1,1,1,1,0.96851788,-31.89587947,2.2,0.45,2.2,0.45
161,'            ',500.0,1,1,1,1,0.968227,-31.8790694,2.2,0.45,2.2,0.45
162,'            ',500.0,1,1,1,1,0.96777104,-29.12524235,2.2,0.45,2.2,0.45
163,'            ',500.0,1,1,1,1,1.08229839,-36.03336225,2.2,0.45,2.2,0.45
164,'            ',500.0,1,1,1,1,1.08285448,-36.04383682,2.2,0.45,2.2,0.45
165,'            ',500.0,1,1,1,1,1.01953441,-35.11987974,2.2,0.45,2.2,0.45
166,'            ',500.0,1,1,1,1,1.01930985,-35.12603387,2.2,0.45,2.2,0.45
167,'            ',138.0,1,1,1,1,1.11693196,-30.2770595,2.2,0.45,2.2,0.45
168,'            ',138.0,2,1,1,1,0.95642999,-31.795186,2.2,0.45,2.2,0.45
169,'            ',138.0,1,1,1,1,0.95702234,-31.79642492,2.2,0.45,2.2,0.45
170,'            ',138.0,1,1,1,1,0.86766898,-29.46801611,2.2,0.45,2.2,0.45
171,'            ',138.0,1,1,1,1,1.12889868,-31.26429455,2.2,0.45,2.2,0.45
172,'            ',138.0,1,1,1,1,0.89253497,-37.88240705,2.2,0.45,2.2,0.45
173,'            ',32.0,1,1,1,1,1.01392152,-38.53859144,2.2,0.45,2.2,0.45
174,'            ',138.0,1,1,1,1,0.867809,-31.28551026,2.2,0.45,2.2,0.45
175,'            ',138.0,1,1,1,1,0.93568202,-31.81356401,2.2,0.45,2.2,0.45
176,'            ',138.0,1,1,1,1,0.93588403,-31.80580845,2.2,0.45,2.2,0.45
177,'            ',138.0,1,1,1,1,1.04371103,-32.21450753,2.2,0.45,2.2,0.45
178,'            ',138.0,1,1,1,1,1.04641447,-32.1694154,2.2,0.45,2.2,0.45
179,'            ',138.0,1,1,1,1,0.92657137,-31.8145246,2.2,0.45,2.2,0.45
180,'            ',138.0,1,1,1,1,0.93557534,-31.82731172,2.2,0.45,2.2,0.45
181,'            ',138.0,1,1,1,1,0.87217655,-31.34591853,2.2,0.45,2.2,0.45
182,'            ',138.0,1,1,1,1,0.94062606,-31.84131293,2.2,0.45,2.2,0.45
183,'            ',138.0,2,1,1,1,1.15793406,-28.90474815,2.2,0.45,2.2,0.45
184,'            ',138.0,1,1,1,1,1.15330504,-29.10243318,2.2,0.45,2.2,0.45
185,'            ',138.0,2,1,1,1,0.8696134,-27.59140106,2.2,0.45,2.2,0.45
186,'            ',138.0,1,1,1,1,0.9452352,-31.84030964,2.2,0.45,2.2,0.45
187,'            ',16.0,1,1,1,1,1.15952341,-29.33222719,2.2,0.45,2.2,0.45
188,'            ',138.0,2,1,1,1,1.08766027,-31.14967445,2.2,0.45,2.2,0.45
189,'            ',138.0,1,1,1,1,1.0815441,-35.76531181,2.2,0.45,2.2,0.45
190,'            ',138.0,1,1,1,1,0.8925984,-37.8836295,2.2,0.45,2.2,0.45
191,'            ',138.0,1,1,1,1,0.92025685,-31.77713168,2.2,0.45,2.2,0.45
192,'            ',138.0,1,1,1,1,0.99679555,-31.94829866,2.2,0.45,2.2,0.45
193,'            ',138.0,1,1,1,1,0.97044565,-31.86330747,2.2,0.45,2.2,0.45
194,'            ',138.0,1,1,1,1,0.86755279,-31.30772063,2.2,0.45,2.2,0.45
195,'            ',138.0,1,1,1,1,1.08480331,-35.16404955,2.2,0.45,2.2,0.45
196,'            ',138.0,1,1,1,1,1.08095268,-35.8855372,2.2,0.45,2.2,0.45
197,'            ',138.0,1,1,1,1,1.08153364,-35.78999306,2.2,0.45,2.2,0.45
198,'            ',138.0,1,1,1,1,1.09845327,-33.67363369,2.2,0.45,2.2,0.45
199,'            ',138.0,1,1,1,1,1.08374777,-35.4972428,2.2,0.45,2.2,0.45
200,'            ',138.0,1,1,1,1,1.08373304,-35.48046968,2.2,0.45,2.2,0.45
...
0 / END OF BUS DATA BEGIN LOAD DATA
2,'99',0,1,1,6.227,-3.529,0.0,0.0,0.0,0.0,1,1,0
3,'1',1,1,1,1.319,0.907,0.0,0.0,0.0,0.0,1,1,0
4,'99',0,1,1,12.753,-4.624,0.0,0.0,0.0,0.0,1,1,0
6,'99',0,1,1,37.742,19.599,0.0,0.0,0.0,0.0,1,1,0
9,'1',1,1,1,8.638,17.661,0.0,0.0,0.0,0.0,1,1,0
9,'99',1,1,1,96.384,-66.85,0.0,0.0,0.0,0.0,1,1,0
10,'1',1,1,1,19.706,34.652,0.0,0.0,0.0,0.0,1,1,0
11,'1',1,1,1,5.938,3.564,0.0,0.0,0.0,0.0,1,1,0
12,'1',1,1,1,0.949,1.898,0.0,0.0,0.0,0.0,1,1,0
12,'99',1,1,1,9.012,3.175,0.0,0.0,0.0,0.0,1,1,0
13,'1',1,1,1,3.004,1.182,0.0,0.0,0.0,0.0,1,1,0
14,'1',1,1,1,2.079,0.465,0.0,0.0,0.0,0.0,1,1,0
14,'99',1,1,1,7.624,3.257,0.0,0.0,0.0,0.0,1,1,0
15,'1',1,1,1,0.204,0.047,0.0,0.0,0.0,0.0,1,1,0
17,'1',1,1,1,5.069,2.193,0.0,0.0,0.0,0.0,1,1,0
18,'1',1,1,1,1.168,0.38,0.0,0.0,0.0,0.0,1,1,0
19,'1',1,1,1,0.712,0.237,0.0,0.0,0.0,0.0,1,1,0
20,'1',1,1,1,0.759,-0.256,0.0,0.0,0.0,0.0,1,1,0
20,'99',1,1,1,8.99,-16.634,0.0,0.0,0.0,0.0,1,1,0
21,'1',1,1,1,6.915,1.471,0.0,0.0,0.0,0.0,1,1,0
23,'1',1,1,1,18.985,0.0,0.0,0.0,0.0,0.0,1,1,0
23,'99',1,1,1,1.189,-6.107,0.0,0.0,0.0,0.0,1,1,0
24,'1',1,1,1,4.053,2.383,0.0,0.0,0.0,0.0,1,1,0
25,'1',1,1,1,0.0,-0.19,0.0,0.0,0.0,0.0,1,1,0
26,'1',1,1,1,16.806,5.985,0.0,0.0,0.0,0.0,1,1,0
27,'1',1,1,1,2.131,0.712,0.0,0.0,0.0,0.0,1,1,0
29,'1',1,1,1,4.514,1.761,0.0,0.0,0.0,0.0,1,1,0
31,'1',1,1,1,2.33,0.812,0.0,0.0,0.0,0.0,1,1,0
32,'1',1,1,1,3.346,1.666,0.0,0.0,0.0,0.0,1,1,0
33,'1',1,1,1,3.346,2.193,0.0,0.0,0.0,0.0,1,1,0
35,'1',1,1,1,0.759,0.237,0.0,0.0,0.0,0.0,1,1,0
39,'1',1,1,1,2.235,0.228,0.0,0.0,0.0,0.0,1,1,0
39,'99',0,1,1,5.818,-0.229,0.0,0.0,0.0,0.0,1,1,0
41,'1',1,1,1,0.812,0.285,0.0,0.0,0.0,0.0,1,1,0
42,'1',1,1,1,2.89,0.427,0.0,0.0,0.0,0.0,1,1,0
43,'99',0,1,1,6.8,1.832,0.0,0.0,0.0,0.0,1,1,0
44,'1',1,1,1,2.112,0.37,0.0,0.0,0.0,0.0,1,1,0
44,'99',1,1,1,5.41,3.573,0.0,0.0,0.0,0.0,1,1,0
45,'1',1,1,1,2.349,1.082,0.0,0.0,0.0,0.0,1,1,0
46,'1',1,1,1,4.414,1.481,0.0,0.0,0.0,0.0,1,1,0
46,'99',1,1,1,13.236,5.925,0.0,0.0,0.0,0.0,1,1,0
47,'1',1,1,1,5.558,1.989,0.0,0.0,0.0,0.0,1,1,0
48,'1',1,1,1,0.0,0.071,0.0,0.0,0.0,0.0,1,1,0
49,'1',1,1,1,8.505,1.998,0.0,0.0,0.0,0.0,1,1,0
49,'99',0,1,1,11.155,-1.94,0.0,0.0,0.0,0.0,1,1,0
52,'1',1,1,1,8.823,2.81,0.0,0.0,0.0,0.0,1,1,0
53,'1',1,1,1,3.759,1.528,0.0,0.0,0.0,0.0,1,1,0
54,'1',1,1,1,1.827,1.001,0.0,0.0,0.0,0.0,1,1,0
55,'1',1,1,1,0.152,0.0,0.0,0.0,0.0,0.0,1,1,0
56,'1',1,1,1,3.356,1.244,0.0,0.0,0.0,0.0,1,1,0
57,'1',1,1,1,1.979,0.707,0.0,0.0,0.0,0.0,1,1,0
58,'1',1,1,1,1.879,0.66,0.0,0.0,0.0,0.0,1,1,0
58,'99',1,1,1,21.781,-3.449,0.0,0.0,0.0,0.0,1,1,0
59,'1',1,1,1,3.147,1.058,0.0,0.0,0.0,0.0,1,1,0
60,'1',1,1,1,0.712,0.19,0.0,0.0,0.0,0.0,1,1,0
61,'99',1,1,1,4.262,11.517,0.0,0.0,0.0,0.0,1,1,0
63,'1',1,1,1,2.231,0.736,0.0,0.0,0.0,0.0,1,1,0
64,'1',1,1,1,1.115,0.38,0.0,0.0,0.0,0.0,1,1,0
65,'1',1,1,1,1.016,0.332,0.0,0.0,0.0,0.0,1,1,0
66,'1',1,1,1,3.507,1.296,0.0,0.0,0.0,0.0,1,1,0
67,'1',1,1,1,4.58,1.77,0.0,0.0,0.0,0.0,1,1,0
68,'1',1,1,1,8.163,16.047,0.0,0.0,0.0,0.0,1,1,0
70,'1',1,1,1,11.866,3.322,0.0,0.0,0.0,0.0,1,1,0
75,'1',1,1,1,5.695,14.239,0.0,0.0,0.0,0.0,1,1,0
76,'1',1,1,1,9.45,17.357,0.0,0.0,0.0,0.0,1,1,0
77,'1',1,1,1,5.695,14.239,0.0,0.0,0.0,0.0,1,1,0
83,'1',1,1,1,5.434,1.253,0.0,0.0,0.0,0.0,1,1,0
84,'1',1,1,1,12.297,3.047,0.0,0.0,0.0,0.0,1,1,0
86,'1',1,1,1,2.867,1.149,0.0,0.0,0.0,0.0,1,1,0
86,'99',0,1,1,4.586,2.996,0.0,0.0,0.0,0.0,1,1,0
87,'1',1,1,1,1.433,0.603,0.0,0.0,0.0,0.0,1,1,0
88,'1',1,1,1,3.147,0.304,0.0,0.0,0.0,0.0,1,1,0
89,'1',1,1,1,5.928,2.302,0.0,0.0,0.0,0.0,1,1,0
90,'1',1,1,1,1.723,0.252,0.0,0.0,0.0,0.0,1,1,0
91,'1',1,1,1,1.68,0.551,0.0,0.0,0.0,0.0,1,1,0
92,'1',1,1,1,9.122,15.615,0.0,0.0,0.0,0.0,1,1,0
94,'1',1,1,1,1.087,0.399,0.0,0.0,0.0,0.0,1,1,0
95,'1',1,1,1,2.226,0.907,0.0,0.0,0.0,0.0,1,1,0
96,'1',1,1,1,0.047,-0.375,0.0,0.0,0.0,0.0,1,1,0
97,'1',1,1,1,0.047,0.024,0.0,0.0,0.0,0.0,1,1,0
97,'99',1,1,1,2.599,0.91,0.0,0.0,0.0,0.0,1,1,0
98,'1',1,1,1,1.429,2.378,0.0,0.0,0.0,0.0,1,1,0
98,'99',1,1,1,8.175,9.735,0.0,0.0,0.0,0.0,1,1,0
99,'1',1,1,1,0.005,0.005,0.0,0.0,0.0,0.0,1,1,0
99,'99',1,1,1,5.959,4.395,0.0,0.0,0.0,0.0,1,1,0
100,'1',1,1,1,6.127,2.25,0.0,0.0,0.0,0.0,1,1,0
101,'1',1,1,1,4.447,1.799,0.0,0.0,0.0,0.0,1,1,0
102,'1',1,1,1,6.721,2.701,0.0,0.0,0.0,0.0,1,1,0
103,'1',1,1,1,5.411,1.775,0.0,0.0,0.0,0.0,1,1,0
104,'1',1,1,1,4.941,1.804,0.0,0.0,0.0,0.0,1,1,0
107,'1',1,1,1,2.606,0.304,0.0,0.0,0.0,0.0,1,1,0
108,'1',1,1,1,3.261,0.949,0.0,0.0,0.0,0.0,1,1,0
109,'1',1,1,1,2.667,1.101,0.0,0.0,0.0,0.0,1,1,0
110,'1',1,1,1,1.974,0.802,0.0,0.0,0.0,0.0,1,1,0
111,'1',1,1,1,0.693,0.252,0.0,0.0,0.0,0.0,1,1,0
112,'1',1,1,1,0.85,0.361,0.0,0.0,0.0,0.0,1,1,0
113,'1',1,1,1,0.793,0.351,0.0,0.0,0.0,0.0,1,1,0
114,'1',1,1,1,1.476,0.408,0.0,0.0,0.0,0.0,1,1,0
115,'1',1,1,1,2.264,0.256,0.0,0.0,0.0,0.0,1,1,0
116,'1',1,1,1,3.36,0.85,0.0,0.0,0.0,0.0,1,1,0
117,'1',1,1,1,5.434,2.202,0.0,0.0,0.0,0.0,1,1,0
118,'1',1,1,1,4.001,1.599,0.0,0.0,0.0,0.0,1,1,0
119,'1',1,1,1,3.213,-0.807,0.0,0.0,0.0,0.0,1,1,0
120,'1',1,1,1,10.38,6.009,0.0,0.0,0.0,0.0,1,1,0
121,'1',1,1,1,11.856,11.006,0.0,0.0,0.0,0.0,1,1,0
122,'1',1,1,1,6.915,2.003,0.0,0.0,0.0,0.0,1,1,0
123,'1',1,1,1,7.656,2.25,0.0,0.0,0.0,0.0,1,1,0
124,'1',1,1,1,2.534,0.84,0.0,0.0,0.0,0.0,1,1,0
125,'1',1,1,1,2.691,2.772,0.0,0.0,0.0,0.0,1,1,0
126,'1',1,1,1,3.655,1.5,0.0,0.0,0.0,0.0,1,1,0
128,'1',1,1,1,3.512,1.206,0.0,0.0,0.0,0.0,1,1,0
129,'1',1,1,1,0.57,0.223,0.0,0.0,0.0,0.0,1,1,0
130,'1',1,1,1,2.715,1.101,0.0,0.0,0.0,0.0,1,1,0
131,'1',1,1,1,2.767,1.101,0.0,0.0,0.0,0.0,1,1,0
132,'1',1,1,1,2.966,0.826,0.0,0.0,0.0,0.0,1,1,0
133,'1',1,1,1,2.966,0.826,0.0,0.0,0.0,0.0,1,1,0
134,'1',1,1,1,0.299,0.1,0.0,0.0,0.0,0.0,1,1,0
135,'1',1,1,1,6.232,2.506,0.0,0.0,0.0,0.0,1,1,0
136,'1',1,1,1,4.447,1.713,0.0,0.0,0.0,0.0,1,1,0
137,'1',1,1,1,2.221,0.902,0.0,0.0,0.0,0.0,1,1,0
138,'1',1,1,1,3.066,1.206,0.0,0.0,0.0,0.0,1,1,0
139,'1',1,1,1,10.328,2.895,0.0,0.0,0.0,0.0,1,1,0
140,'1',1,1,1,0.987,0.399,0.0,0.0,0.0,0.0,1,1,0
141,'1',1,1,1,1.286,0.498,0.0,0.0,0.0,0.0,1,1,0
142,'1',1,1,1,1.927,0.252,0.0,0.0,0.0,0.0,1,1,0
146,'1',1,1,1,4.001,1.452,0.0,0.0,0.0,0.0,1,1,0
147,'1',1,1,1,1.78,0.399,0.0,0.0,0.0,0.0,1,1,0
148,'1',1,1,1,13.389,4.903,0.0,0.0,0.0,0.0,1,1,0
149,'1',1,1,1,0.74,0.299,0.0,0.0,0.0,0.0,1,1,0
150,'1',1,1,1,300.909,0.0,0.0,0.0,0.0,0.0,1,1,0
151,'99',1,1,1,38.682,40.768,0.0,0.0,0.0,0.0,1,1,0
156,'99',0,1,1,73.378,34.042,0.0,0.0,0.0,0.0,1,1,0
162,'99',1,1,1,16.476,28.554,0.0,0.0,0.0,0.0,1,1,0
165,'1',1,1,1,5.221,18.985,0.0,0.0,0.0,0.0,1,1,0
166,'1',1,1,1,2.373,4.746,0.0,0.0,0.0,0.0,1,1,0
167,'1',1,1,1,3.289,1.476,0.0,0.0,0.0,0.0,1,1,0
168,'1',1,1,1,6.953,0.475,0.0,0.0,0.0,0.0,1,1,0
169,'1',1,1,1,3.863,0.626,0.0,0.0,0.0,0.0,1,1,0
170,'1',1,1,1,6.725,2.003,0.0,0.0,0.0,0.0,1,1,0
171,'1',1,1,1,2.003,0.475,0.0,0.0,0.0,0.0,1,1,0
172,'99',1,1,1,62.607,27.08,0.0,0.0,0.0,0.0,1,1,0
175,'1',1,1,1,2.478,1.001,0.0,0.0,0.0,0.0,1,1,0
176,'1',1,1,1,1.239,0.475,0.0,0.0,0.0,0.0,1,1,0
177,'1',1,1,1,0.005,0.005,0.0,0.0,0.0,0.0,1,1,0
178,'1',1,1,1,0.005,0.005,0.0,0.0,0.0,0.0,1,1,0
179,'1',1,1,1,7.437,2.478,0.0,0.0,0.0,0.0,1,1,0
180,'1',1,1,1,7.964,2.24,0.0,0.0,0.0,0.0,1,1,0
181,'1',1,1,1,2.003,0.237,0.0,0.0,0.0,0.0,1,1,0
182,'1',1,1,1,5.15,0.475,0.0,0.0,0.0,0.0,1,1,0
183,'1',1,1,1,6.963,1.476,0.0,0.0,0.0,0.0,1,1,0
184,'1',1,1,1,3.579,0.475,0.0,0.0,0.0,0.0,1,1,0
185,'1',1,1,1,1.001,0.237,0.0,0.0,0.0,0.0,1,1,0
186,'1',1,1,1,2.72,0.475,0.0,0.0,0.0,0.0,1,1,0
188,'1',1,1,1,4.485,1.239,0.0,0.0,0.0,0.0,1,1,0
189,'1',1,1,1,2.003,0.475,0.0,0.0,0.0,0.0,1,1,0
191,'1',1,1,1,7.437,1.239,0.0,0.0,0.0,0.0,1,1,0
192,'1',1,1,1,9.44,3.242,0.0,0.0,0.0,0.0,1,1,0
193,'1',1,1,1,3.958,1.286,0.0,0.0,0.0,0.0,1,1,0
194,'1',1,1,1,7.964,3.004,0.0,0.0,0.0,0.0,1,1,0
195,'1',1,1,1,6.963,1.476,0.0,0.0,0.0,0.0,1,1,0
196,'1',1,1,1,2.478,0.0,0.0,0.0,0.0,0.0,1,1,0
196,'99',1,1,1,0.276,-0.106,0.0,0.0,0.0,0.0,1,1,0
197,'1',1,1,1,3.479,1.001,0.0,0.0,0.0,0.0,1,1,0
198,'1',1,1,1,2.478,0.237,0.0,0.0,0.0,0.0,1,1,0
201,'1',1,1,1,4.485,0.475,0.0,0.0,0.0,0.0,1,1,0
202,'1',1,1,1,3.958,0.475,0.0,0.0,0.0,0.0,1,1,0
202,'99',1,1,1,6.256,-0.17,0.0,0.0,0.0,0.0,1,1,0
203,'1',1,1,1,4.96,0.475,0.0,0.0,0.0,0.0,1,1,0
204,'1',1,1,1,3.958,1.476,0.0,0.0,0.0,0.0,1,1,0
206,'1',1,1,1,6.963,1.476,0.0,0.0,0.0,0.0,1,1,0
207,'1',1,1,1,14.447,2.003,0.0,0.0,0.0,0.0,1,1,0
208,'1',1,1,1,8.966,2.24,0.0,0.0,0.0,0.0,1,1,0
209,'1',1,1,1,5.482,0.475,0.0,0.0,0.0,0.0,1,1,0
210,'1',1,1,1,8.439,2.003,0.0,0.0,0.0,0.0,1,1,0
212,'99',1,1,1,0.126,-0.715,0.0,0.0,0.0,0.0,1,1,0
213,'99',1,1,1,1.442,-0.408,0.0,0.0,0.0,0.0,1,1,0
218,'99',1,1,1,6.351,61.697,0.0,0.0,0.0,0.0,1,1,0
221,'99',0,1,1,23.859,6.839,0.0,0.0,0.0,0.0,1,1,0
222,'99',1,1,1,46.49,28.754,0.0,0.0,0.0,0.0,1,1,0
223,'1',1,1,1,4.746,20.883,0.0,0.0,0.0,0.0,1,1,0
224,'1',1,1,1,4.746,20.883,0.0,0.0,0.0,0.0,1,1,0
225,'1',1,1,1,8.638,17.661,0.0,0.0,0.0,0.0,1,1,0
225,'99',0,1,1,2.308,-54.982,0.0,0.0,0.0,0.0,1,1,0
226,'99',0,1,1,19.342,-9.213,0.0,0.0,0.0,0.0,1,1,0
227,'1',1,1,1,0.0,-0.375,0.0,0.0,0.0,0.0,1,1,0
228,'1',1,1,1,0.0,-0.375,0.0,0.0,0.0,0.0,1,1,0
229,'1',1,1,1,1.723,0.617,0.0,0.0,0.0,0.0,1,1,0
231,'99',1,1,1,13.953,-4.629,0.0,0.0,0.0,0.0,1,1,0
232,'99',0,1,1,7.207,2.166,0.0,0.0,0.0,0.0,1,1,0
233,'1',1,1,1,5.069,2.193,0.0,0.0,0.0,0.0,1,1,0
234,'1',1,1,1,2.587,1.951,0.0,0.0,0.0,0.0,1,1,0
235,'1',1,1,1,0.1,0.109,0.0,0.0,0.0,0.0,1,1,0
235,'99',1,1,1,30.542,7.415,0.0,0.0,0.0,0.0,1,1,0
236,'1',1,1,1,0.759,-0.256,0.0,0.0,0.0,0.0,1,1,0
238,'1',1,1,1,27.053,9.16,0.0,0.0,0.0,0.0,1,1,0
241,'99',1,1,1,18.369,3.786,0.0,0.0,0.0,0.0,1,1,0
242,'1',1,1,1,0.56,0.095,0.0,0.0,0.0,0.0,1,1,0
243,'99',1,1,1,8.947,-4.659,0.0,0.0,0.0,0.0,1,1,0
244,'1',1,1,1,2.131,0.712,0.0,0.0,0.0,0.0,1,1,0
246,'1',1,1,1,4.746,20.883,0.0,0.0,0.0,0.0,1,1,0
...
0 / END OF LOAD DATA BEGIN FIXED SHUNT DATA
2,'99',1,0.0,-7.133
4,'99',1,0.0,-9.601
6,'99',1,0.0,41.987
32,'99',1,0.0,-1.306
39,'99',1,0.0,-0.488
43,'99',1,0.0,3.712
49,'99',1,0.0,-4.149
53,'99',1,0.0,-61.98
67,'99',1,0.0,3.708
86,'99',1,0.0,6.325
90,'99',1,0.0,-0.019
153,'99',1,0.0,-11.354
156,'99',1,0.0,75.294
157,'99',1,0.0,-27.072
158,'99',1,0.0,-322.112
161,'99',1,0.0,-124.239
221,'99',1,0.0,13.922
225,'99',1,0.0,-110.36
226,'99',1,0.0,-18.625
232,'99',1,0.0,4.355
245,'99',1,0.0,-10.356
253,'99',1,0.0,6.238
255,'99',1,0.0,7.309
271,'99',1,0.0,5.929
275,'99',1,0.0,84.787
277,'99',1,0.0,110.69
281,'99',1,0.0,2.151
285,'99',1,0.0,-161.346
309,'99',1,0.0,22.813
348,'99',1,0.0,-12.059
374,'99',1,0.0,-345.603
466,'99',1,0.0,-104.053
471,'99',1,0.0,-290.111
478,'99',1,0.0,64.761
577,'99',1,0.0,-7.123
579,'99',1,0.0,-9.607
580,'99',1,0.0,-102.36
581,'99',1,0.0,47.641
583,'99',1,0.0,-2.918
585,'99',1,0.0,13.934
589,'99',1,0.0,3.923
623,'99',1,0.0,8.01
624,'99',1,0.0,-7.008
636,'99',1,0.0,0.009
672,'99',1,0.0,12.795
690,'99',1,0.0,6.841
695,'99',1,0.0,16.47
698,'99',1,0.0,160.079
703,'99',1,0.0,-47.656
718,'99',1,0.0,-21.734
720,'99',1,0.0,20.121
723,'99',1,0.0,8.7
750,'99',1,0.0,13.261
760,'99',1,0.0,64.443
766,'99',1,0.0,115.888
817,'99',1,0.0,11.465
869,'99',1,0.0,5.172
883,'99',1,0.0,11.098
939,'99',1,0.0,11.802
942,'99',1,0.0,7.486
979,'99',1,0.0,14.306
983,'99',1,0.0,-5.456
995,'99',1,0.0,14.167
1012,'99',1,0.0,2.712
1013,'99',1,0.0,-10.135
1054,'99',1,0.0,2.499
1096,'99',1,0.0,-29.377
1135,'99',1,0.0,16.277
1226,'99',1,0.0,307.861
1241,'99',1,0.0,-9.766
1245,'99',1,0.0,28.8
1266,'99',1,0.0,1.091
1267,'99',1,0.0,-13.276
1351,'99',1,0.0,9.622
1359,'99',1,0.0,44.093
1376,'99',1,0.0,62.25
1377,'99',1,0.0,37.157
1384,'99',1,0.0,-0.278
1400,'99',1,0.0,13.892
1495,'99',1,0.0,-1.174
1496,'99',1,0.0,12.766
1525,'99',1,0.0,-18.886
1533,'99',1,0.0,-95.945
1557,'99',1,0.0,-31.028
1565,'99',1,0.0,-52.104
1621,'99',1,0.0,-73.418
1807,'99',1,0.0,-15.963
1877,'99',1,0.0,-5.368
1878,'99',1,0.0,12.724
1880,'99',1,0.0,-5.367
1923,'99',1,0.0,-9.083
1951,'99',1,0.0,0.756
1979,'99',1,0.0,0.624
1998,'99',1,0.0,4.345
1999,'99',1,0.0,17.297
2083,'99',1,0.0,28.513
2093,'99',1,0.0,103.474
2095,'99',1,0.0,-13.183
2109,'99',1,0.0,-38.789
2111,'99',1,0.0,-2.161
2129,'99',1,0.0,-0.089
2146,'99',1,0.0,-19.827
2172,'99',1,0.0,2.864
2174,'99',1,0.0,9.1
2179,'99',1,0.0,94.807
2192,'99',1,0.0,-0.371
2197,'99',1,0.0,5.815
2224,'99',1,0.0,1.293
2230,'99',1,0.0,-11.696
2244,'99',1,0.0,3.661
2246,'99',1,0.0,-32.703
2251,'99',1,0.0,17.159
2258,'99',1,0.0,9.498
2262,'99',1,0.0,-0.418
2269,'99',1,0.0,-361.197
2287,'99',1,0.0,191.001
2293,'99',1,0.0,-120.311
2296,'99',1,0.0,2.477
2297,'99',1,0.0,-130.348
2309,'99',1,0.0,30.957
2311,'99',1,0.0,-63.287
0 / END OF FIXED SHUNT DATA BEGIN GENERATOR DATA
9,'1',0.0,0.0,93.531,-93.531,0.90419819,0,100.0,0.0,1.0,0.0,0.0,1.0,0,100.0,301.471,135.0,1,1.0,0,1.0,0,1.0,0,1.0,0,1.0
10,'1',0.0,0.0,155.693,-155.693,0.9038848,0,100.0,0.0,1.0,0.0,0.0,1.0,0,100.0,501.832,171.516,1,1.0,0,1.0,0,1.0,0,1.0,0,1.0
10,'2',0.0,0.0,162.14,-162.14,0.9038848,0,100.0,0.0,1.0,0.0,0.0,1.0,0,100.0,522.609,178.876,1,1.0,0,1.0,0,1.0,0,1.0,0,1.0
11,'2',0.0,0.0,20.075,-20.075,0.86064337,0,100.0,0.0,1.0,0.0,0.0,1.0,0,100.0,64.706,35.833,1,1.0,0,1.0,0,1.0,0,1.0,0,1.0
12,'1',0.0,0.0,20.075,-20.075,0.90847257,0,100.0,0.0,1.0,0.0,0.0,1.0,0,100.0,64.706,35.833,1,1.0,0,1.0,0,1.0,0,1.0,0,1.0
24,'99',46.56563913,21.23311998,27.194,-27.194,0.95524711,0,100.0,0.0,1.0,0.0,0.0,1.0,1,100.0,87.653,3.0,1,1.0,0,1.0,0,1.0,0,1.0,0,1.0
26,'1',0.0,0.0,5.475,-5.475,0.88003656,0,100.0,0.0,1.0,0.0,0.0,1.0,0,100.0,17.647,3.0,1,1.0,0,1.0,0,1.0,0,1.0,0,1.0
46,'2',8.44449728,1.374293,4.38,-4.38,0.88837012,0,100.0,0.0,1.0,0.0,0.0,1.0,1,100.0,14.118,3.0,1,1.0,0,1.0,0,1.0,0,1.0,0,1.0
68,'1',171.32427613,90.24721985,93.531,-93.531,0.91961146,0,100.0,0.0,1.0,0.0,0.0,1.0,1,100.0,301.471,135.0,1,1.0,0,1.0,0,1.0,0,1.0,0,1.0
75,'1',0.0,0.0,74.825,-74.825,0.79687915,0,100.0,0.0,1.0,0.0,0.0,1.0,0,100.0,241.176,135.0,1,1.0,0,1.0,0,1.0,0,1.0,0,1.0
76,'3',174.00215958,78.06546225,84.68,-84.68,0.79660679,0,100.0,0.0,1.0,0.0,0.0,1.0,1,100.0,272.941,100.0,1,1.0,0,1.0,0,1.0,0,1.0,0,1.0
77,'1',0.0,0.0,91.25,-91.25,0.79932095,0,100.0,0.0,1.0,0.0,0.0,1.0,0,100.0,294.118,90.0,1,1.0,0,1.0,0,1.0,0,1.0,0,1.0
77,'99',145.53392432,60.93777685,90.313,-90.313,0.79932095,0,100.0,0.0,1.0,0.0,0.0,1.0,1,100.0,291.099,14.555,1,1.0,0,1.0,0,1.0,0,1.0,0,1.0
78,'99',99.86695809,57.78738261,63.457,-63.457,0.94997667,0,100.0,0.0,1.0,0.0,0.0,1.0,1,100.0,204.535,10.227,1,1.0,0,1.0,0,1.0,0,1.0,0,1.0
92,'1',0.0,0.0,81.03,-81.03,0.72521201,0,100.0,0.0,1.0,0.0,0.0,1.0,0,100.0,261.176,90.0,1,1.0,0,1.0,0,1.0,0,1.0,0,1.0
95,'1',0.0,0.0,104.755,-104.755,0.73677643,0,100.0,0.0,1.0,0.0,0.0,1.0,0,100.0,337.647,16.882,1,1.0,0,1.0,0,1.0,0,1.0,0,1.0
98,'1',0.0,0.0,24.044,-24.044,0.82248957,0,100.0,0.0,1.0,0.0,0.0,1.0,0,100.0,77.5,10.0,1,1.0,0,1.0,0,1.0,0,1.0,0,1.0
98,'2',136.8563222,89.5467437,97.455,-97.455,0.82248957,0,100.0,0.0,1.0,0.0,0.0,1.0,1,100.0,314.118,2.0,1,1.0,0,1.0,0,1.0,0,1.0,0,1.0
99,'1',125.44073559,88.82022205,95.63,-95.63,0.9011538,0,100.0,0.0,1.0,0.0,0.0,1.0,1,100.0,308.235,1.0,1,1.0,0,1.0,0,1.0,0,1.0,0,1.0
112,'1',0.0,0.0,101.47,-101.47,0.68324633,0,100.0,0.0,1.0,0.0,0.0,1.0,0,100.0,327.059,16.353,1,1.0,0,1.0,0,1.0,0,1.0,0,1.0
112,'2',0.0,0.0,105.12,-105.12,0.68324633,0,100.0,0.0,1.0,0.0,0.0,1.0,0,100.0,338.824,1.0,1,1.0,0,1.0,0,1.0,0,1.0,0,1.0
120,'1',0.0,0.0,7.3,-7.3,0.81781884,0,100.0,0.0,1.0,0.0,0.0,1.0,0,100.0,23.529,5.0,1,1.0,0,1.0,0,1.0,0,1.0,0,1.0
125,'1',0.0,0.0,23.725,-23.725,0.74301705,0,100.0,0.0,1.0,0.0,0.0,1.0,0,100.0,76.471,40.0,1,1.0,0,1.0,0,1.0,0,1.0,0,1.0
127,'1',0.0,0.0,11.315,-11.315,0.74472015,0,100.0,0.0,1.0,0.0,0.0,1.0,0,100.0,36.471,3.0,1,1.0,0,1.0,0,1.0,0,1.0,0,1.0
128,'1',0.0,0.0,11.315,-11.315,0.74449048,0,100.0,0.0,1.0,0.0,0.0,1.0,0,100.0,36.471,3.0,1,1.0,0,1.0,0,1.0,0,1.0,0,1.0
135,'1',140.13389267,100.51239048,104.39,-104.39,0.98600388,0,100.0,0.0,1.0,0.0,0.0,1.0,1,100.0,336.471,1.0,1,1.0,0,1.0,0,1.0,0,1.0,0,1.0
138,'1',0.0,0.0,94.9,-94.9,0.7375013,0,100.0,0.0,1.0,0.0,0.0,1.0,0,100.0,305.882,15.294,1,1.0,0,1.0,0,1.0,0,1.0,0,1.0
150,'1',191.34626776,91.05944196,97.82,-97.82,0.80488269,0,100.0,0.0,1.0,0.0,0.0,1.0,1,100.0,315.294,15.765,1,1.0,0,1.0,0,1.0,0,1.0,0,1.0
165,'1',0.0,0.0,65.335,-65.335,1.01953441,0,100.0,0.0,1.0,0.0,0.0,1.0,0,100.0,210.588,10.529,1,1.0,0,1.0,0,1.0,0,1.0,0,1.0
165,'2',0.0,0.0,65.335,-65.335,1.01953441,0,100.0,0.0,1.0,0.0,0.0,1.0,0,100.0,210.588,10.529,1,1.0,0,1.0,0,1.0,0,1.0,0,1.0
165,'3',0.0,0.0,65.335,-65.335,1.01953441,0,100.0,0.0,1.0,0.0,0.0,1.0,0,100.0,210.588,10.529,1,1.0,0,1.0,0,1.0,0,1.0,0,1.0
166,'1',0.0,0.0,65.335,-65.335,1.01930985,0,100.0,0.0,1.0,0.0,0.0,1.0,0,100.0,210.588,3.6,1,1.0,0,1.0,0,1.0,0,1.0,0,1.0
168,'1',40.71687964,10.00171514,20.075,-20.075,0.95642999,0,100.0,0.0,1.0,0.0,0.0,1.0,1,100.0,64.706,26.0,1,1.0,0,1.0,0,1.0,0,1.0,0,1.0
171,'1',0.0,0.0,103.66,-103.66,1.12889868,0,100.0,0.0,1.0,0.0,0.0,1.0,0,100.0,334.118,16.706,1,1.0,0,1.0,0,1.0,0,1.0,0,1.0
177,'1',0.0,0.0,6.57,-6.57,1.04371103,0,100.0,0.0,1.0,0.0,0.0,1.0,0,100.0,21.176,3.0,1,1.0,0,1.0,0,1.0,0,1.0,0,1.0
178,'1',0.0,0.0,8.03,-8.03,1.04641447,0,100.0,0.0,1.0,0.0,0.0,1.0,0,100.0,25.882,3.0,1,1.0,0,1.0,0,1.0,0,1.0,0,1.0
183,'1',188.26426306,82.82515157,95.63,-95.63,1.15793406,0,100.0,0.0,1.0,0.0,0.0,1.0,1,100.0,308.235,10.973,1,1.0,0,1.0,0,1.0,0,1.0,0,1.0
185,'99',154.3583717,-53.71861865,99.645,-99.645,0.8696134,0,100.0,0.0,1.0,0.0,0.0,1.0,1,100.0,321.176,3.0,1,1.0,0,1.0,0,1.0,0,1.0,0,1.0
188,'1',218.06554698,94.1829245,109.135,-109.135,1.08766027,0,100.0,0.0,1.0,0.0,0.0,1.0,1,100.0,351.765,1.0,1,1.0,0,1.0,0,1.0,0,1.0,0,1.0
194,'1',0.0,0.0,103.66,-103.66,0.86755279,0,100.0,0.0,1.0,0.0,0.0,1.0,0,100.0,334.118,16.706,1,1.0,0,1.0,0,1.0,0,1.0,0,1.0
195,'1',0.0,0.0,93.44,-93.44,1.08480331,0,100.0,0.0,1.0,0.0,0.0,1.0,0,100.0,301.176,3.0,1,1.0,0,1.0,0,1.0,0,1.0,0,1.0
201,'1',0.0,0.0,106.215,-106.215,1.08851467,0,100.0,0.0,1.0,0.0,0.0,1.0,0,100.0,342.353,17.118,1,1.0,0,1.0,0,1.0,0,1.0,0,1.0
207,'1',0.0,0.0,107.31,-107.31,1.03595467,0,100.0,0.0,1.0,0.0,0.0,1.0,0,100.0,345.882,17.294,1,1.0,0,1.0,0,1.0,0,1.0,0,1.0
209,'1',0.0,0.0,95.265,-95.265,1.1281264,0,100.0,0.0,1.0,0.0,0.0,1.0,0,100.0,307.059,15.353,1,1.0,0,1.0,0,1.0,0,1.0,0,1.0
217,'99',164.90377383,60.98023932,62.42,-62.42,0.9361686,0,100.0,0.0,1.0,0.0,0.0,1.0,1,100.0,201.194,10.06,1,1.0,0,1.0,0,1.0,0,1.0,0,1.0
223,'1',0.0,0.0,98.101,-98.101,0.92841032,0,100.0,0.0,1.0,0.0,0.0,1.0,0,100.0,316.2,120.0,1,1.0,0,1.0,0,1.0,0,1.0,0,1.0
224,'1',196.44936751,88.46821863,98.094,-98.094,0.92867243,0,100.0,0.0,1.0,0.0,0.0,1.0,1,100.0,316.177,120.0,1,1.0,0,1.0,0,1.0,0,1.0,0,1.0
225,'1',194.97672172,83.77048572,93.531,-93.531,0.91052121,0,100.0,0.0,1.0,0.0,0.0,1.0,1,100.0,301.471,135.0,1,1.0,0,1.0,0,1.0,0,1.0,0,1.0
246,'1',184.79459729,90.04049185,98.094,-98.094,1.01291506,0,100.0,0.0,1.0,0.0,0.0,1.0,1,100.0,316.177,120.0,1,1.0,0,1.0,0,1.0,0,1.0,0,1.0
248,'99',42.06045423,-14.03748522,22.027,-22.027,0.90865083,0,100.0,0.0,1.0,0.0,0.0,1.0,1,100.0,70.999,3.55,1,1.0,0,1.0,0,1.0,0,1.0,0,1.0
252,'1',106.76035456,50.49272556,57.031,-57.031,0.97681388,0,100.0,0.0,1.0,0.0,0.0,1.0,1,100.0,183.824,70.0,1,1.0,0,1.0,0,1.0,0,1.0,0,1.0
252,'2',0.0,0.0,45.625,-45.625,0.97681388,0,100.0,0.0,1.0,0.0,0.0,1.0,0,100.0,147.059,70.0,1,1.0,0,1.0,0,1.0,0,1.0,0,1.0
274,'1',0.0,0.0,108.405,-108.405,0.92026166,0,100.0,0.0,1.0,0.0,0.0,1.0,0,100.0,349.412,17.471,1,1.0,0,1.0,0,1.0,0,1.0,0,1.0
282,'98',22.77409795,477.73282526,500.0,-500.0,0.96129377,0,100.0,0.0,1.0,0.0,0.0,1.0,1,100.0,40.0,3.0,1,1.0,0,1.0,0,1.0,0,1.0,0,1.0
289,'1',0.0,0.0,65.335,-65.335,0.9376997,0,100.0,0.0,1.0,0.0,0.0,1.0,0,100.0,210.588,10.529,1,1.0,0,1.0,0,1.0,0,1.0,0,1.0
289,'2',151.14364215,51.61251708,65.335,-65.335,0.9376997,0,100.0,0.0,1.0,0.0,0.0,1.0,1,100.0,210.588,10.529,1,1.0,0,1.0,0,1.0,0,1.0,0,1.0
289,'3',0.0,0.0,65.335,-65.335,0.9376997,0,100.0,0.0,1.0,0.0,0.0,1.0,0,100.0,210.588,10.529,1,1.0,0,1.0,0,1.0,0,1.0,0,1.0
290,'1',0.0,0.0,65.335,-65.335,0.93789269,0,100.0,0.0,1.0,0.0,0.0,1.0,0,100.0,210.588,10.529,1,1.0,0,1.0,0,1.0,0,1.0,0,1.0
292,'1',41.2357257,13.18283113,20.075,-20.075,0.85122056,0,100.0,0.0,1.0,0.0,0.0,1.0,1,100.0,64.706,26.0,1,1.0,0,1.0,0,1.0,0,1.0,0,1.0
295,'1',0.0,0.0,108.04,-108.04,0.90456369,0,100.0,0.0,1.0,0.0,0.0,1.0,0,100.0,348.235,17.412,1,1.0,0,1.0,0,1.0,0,1.0,0,1.0
297,'97',22.46436459,126.74516877,547.5,-547.5,1.18478284,0,100.0,0.0,1.0,0.0,0.0,1.0,1,100.0,40.0,3.0,1,1.0,0,1.0,0,1.0,0,1.0,0,1.0
301,'1',0.0,0.0,6.57,-6.57,0.94266607,0,100.0,0.0,1.0,0.0,0.0,1.0,0,100.0,21.176,3.0,1,1.0,0,1.0,0,1.0,0,1.0,0,1.0
302,'1',0.0,0.0,8.03,-8.03,0.93990024,0,100.0,0.0,1.0,0.0,0.0,1.0,0,100.0,25.882,3.0,1,1.0,0,1.0,0,1.0,0,1.0,0,1.0
307,'1',0.0,0.0,107.31,-107.31,0.90520856,0,100.0,0.0,1.0,0.0,0.0,1.0,0,100.0,345.882,17.294,1,1.0,0,1.0,0,1.0,0,1.0,0,1.0
311,'97',24.48339703,447.50393862,547.5,-547.5,1.33726085,0,100.0,0.0,1.0,0.0,0.0,1.0,1,100.0,40.0,3.0,1,1.0,0,1.0,0,1.0,0,1.0,0,1.0
312,'1',0.0,0.0,94.17,-94.17,0.90892389,0,100.0,0.0,1.0,0.0,0.0,1.0,0,100.0,303.529,1.0,1,1.0,0,1.0,0,1.0,0,1.0,0,1.0
318,'1',199.34481327,99.61292327,109.135,-109.135,0.80625513,0,100.0,0.0,1.0,0.0,0.0,1.0,1,100.0,351.765,6.73,1,1.0,0,1.0,0,1.0,0,1.0,0,1.0
319,'1',0.0,0.0,96.36,-96.36,0.90692248,0,100.0,0.0,1.0,0.0,0.0,1.0,0,100.0,310.588,15.529,1,1.0,0,1.0,0,1.0,0,1.0,0,1.0
325,'1',0.0,0.0,97.455,-97.455,0.9051563,0,100.0,0.0,1.0,0.0,0.0,1.0,0,100.0,314.118,15.706,1,1.0,0,1.0,0,1.0,0,1.0,0,1.0
331,'1',187.67324926,83.08304129,92.71,-92.71,0.95076936,0,100.0,0.0,1.0,0.0,0.0,1.0,1,100.0,298.824,14.941,1,1.0,0,1.0,0,1.0,0,1.0,0,1.0
333,'1',0.0,0.0,97.455,-97.455,0.90661974,0,100.0,0.0,1.0,0.0,0.0,1.0,0,100.0,314.118,15.706,1,1.0,0,1.0,0,1.0,0,1.0,0,1.0
343,'1',0.0,0.0,147.451,-147.451,0.64288815,0,100.0,0.0,1.0,0.0,0.0,1.0,0,100.0,475.266,23.763,1,1.0,0,1.0,0,1.0,0,1.0,0,1.0
344,'1',0.0,0.0,147.451,-147.451,0.77146579,0,100.0,0.0,1.0,0.0,0.0,1.0,0,100.0,475.266,23.763,1,1.0,0,1.0,0,1.0,0,1.0,0,1.0
345,'1',300.8988201,123.22486482,147.467,-147.467,0.79924748,0,100.0,0.0,1.0,0.0,0.0,1.0,1,100.0,475.316,23.766,1,1.0,0,1.0,0,1.0,0,1.0,0,1.0
347,'1',0.0,0.0,134.137,-134.137,0.71016599,0,100.0,0.0,1.0,0.0,0.0,1.0,0,100.0,432.353,21.618,1,1.0,0,1.0,0,1.0,0,1.0,0,1.0
349,'1',221.31514134,77.09238952,98.55,-98.55,1.00829023,0,100.0,0.0,1.0,0.0,0.0,1.0,1,100.0,317.647,11.67,1,1.0,0,1.0,0,1.0,0,1.0,0,1.0
350,'1',0.0,0.0,98.55,-98.55,0.86553034,0,100.0,0.0,1.0,0.0,0.0,1.0,0,100.0,317.647,15.882,1,1.0,0,1.0,0,1.0,0,1.0,0,1.0
351,'1',0.0,0.0,98.55,-98.55,0.86630229,0,100.0,0.0,1.0,0.0,0.0,1.0,0,100.0,317.647,15.882,1,1.0,0,1.0,0,1.0,0,1.0,0,1.0
352,'1',0.0,0.0,98.55,-98.55,0.78754754,0,100.0,0.0,1.0,0.0,0.0,1.0,0,100.0,317.647,15.882,1,1.0,0,1.0,0,1.0,0,1.0,0,1.0
353,'1',236.29908896,89.05291862,110.869,-110.869,0.91512452,0,100.0,0.0,1.0,0.0,0.0,1.0,1,100.0,357.353,17.868,1,1.0,0,1.0,0,1.0,0,1.0,0,1.0
354,'1',0.0,0.0,110.869,-110.869,0.96170038,0,100.0,0.0,1.0,0.0,0.0,1.0,0,100.0,357.353,17.868,1,1.0,0,1.0,0,1.0,0,1.0,0,1.0
355,'1',0.0,0.0,98.961,-98.961,1.08266329,0,100.0,0.0,1.0,0.0,0.0,1.0,0,100.0,318.971,15.949,1,1.0,0,1.0,0,1.0,0,1.0,0,1.0
356,'1',200.18904168,77.30262771,98.961,-98.961,1.00920713,0,100.0,0.0,1.0,0.0,0.0,1.0,1,100.0,318.971,15.949,1,1.0,0,1.0,0,1.0,0,1.0,0,1.0
357,'1',0.0,0.0,98.961,-98.961,0.86613063,0,100.0,0.0,1.0,0.0,0.0,1.0,0,100.0,318.971,15.949,1,1.0,0,1.0,0,1.0,0,1.0,0,1.0
358,'1',281.73304849,104.35888153,126.582,-126.582,0.91164357,0,100.0,0.0,1.0,0.0,0.0,1.0,1,100.0,408.0,20.4,1,1.0,0,1.0,0,1.0,0,1.0,0,1.0
360,'1',0.0,0.0,145.242,-145.242,0.92179966,0,100.0,0.0,1.0,0.0,0.0,1.0,0,100.0,468.145,23.407,1,1.0,0,1.0,0,1.0,0,1.0,0,1.0
361,'1',0.0,0.0,145.242,-145.242,0.8296197,0,100.0,0.0,1.0,0.0,0.0,1.0,0,100.0,468.145,23.407,1,1.0,0,1.0,0,1.0,0,1.0,0,1.0
362,'1',0.0,0.0,145.242,-145.242,0.92179966,0,100.0,0.0,1.0,0.0,0.0,1.0,0,100.0,468.145,23.407,1,1.0,0,1.0,0,1.0,0,1.0,0,1.0
364,'1',302.59075906,111.21423962,132.769,-132.769,0.76706128,0,100.0,0.0,1.0,0.0,0.0,1.0,1,100.0,427.941,21.397,1,1.0,0,1.0,0,1.0,0,1.0,0,1.0
365,'1',0.0,0.0,132.769,-132.769,0.78618177,0,100.0,0.0,1.0,0.0,0.0,1.0,0,100.0,427.941,21.397,1,1.0,0,1.0,0,1.0,0,1.0,0,1.0
366,'1',163.12016522,59.35245596,80.072,-80.072,1.00818755,0,100.0,0.0,1.0,0.0,0.0,1.0,1,100.0,258.088,12.904,1,1.0,0,1.0,0,1.0,0,1.0,0,1.0
367,'1',0.0,0.0,80.072,-80.072,0.86479995,0,100.0,0.0,1.0,0.0,0.0,1.0,0,100.0,258.088,12.904,1,1.0,0,1.0,0,1.0,0,1.0,0,1.0
379,'99',372.20546456,-234.80493768,285.277,-285.277,0.69470922,0,100.0,0.0,1.0,0.0,0.0,1.0,1,100.0,919.508,45.975,1,1.0,0,1.0,0,1.0,0,1.0,0,1.0
385,'99',388.18042012,146.99059517,171.709,-171.709,0.88699906,0,100.0,0.0,1.0,0.0,0.0,1.0,1,100.0,553.454,27.673,1,1.0,0,1.0,0,1.0,0,1.0,0,1.0
392,'1',0.0,0.0,148.427,-148.427,0.80226818,0,100.0,0.0,1.0,0.0,0.0,1.0,0,100.0,478.409,23.92,1,1.0,0,1.0,0,1.0,0,1.0,0,1.0
393,'1',0.0,0.0,148.282,-148.282,0.882495,0,100.0,0.0,1.0,0.0,0.0,1.0,0,100.0,477.944,23.897,1,1.0,0,1.0,0,1.0,0,1.0,0,1.0
394,'1',0.0,0.0,148.411,-148.411,0.98055,0,100.0,0.0,1.0,0.0,0.0,1.0,0,100.0,478.359,23.918,1,1.0,0,1.0,0,1.0,0,1.0,0,1.0
395,'1',0.0,0.0,148.387,-148.387,0.98055,0,100.0,0.0,1.0,0.0,0.0,1.0,0,100.0,478.281,23.914,1,1.0,0,1.0,0,1.0,0,1.0,0,1.0
397,'1',0.0,0.0,134.137,-134.137,1.00577242,0,100.0,0.0,1.0,0.0,0.0,1.0,0,100.0,432.353,21.618,1,1.0,0,1.0,0,1.0,0,1.0,0,1.0
399,'1',0.0,0.0,134.137,-134.137,0.750953,0,100.0,0.0,1.0,0.0,0.0,1.0,0,100.0,432.353,21.618,1,1.0,0,1.0,0,1.0,0,1.0,0,1.0
400,'1',0.0,0.0,134.137,-134.137,0.9011436,0,100.0,0.0,1.0,0.0,0.0,1.0,0,100.0,432.353,21.618,1,1.0,0,1.0,0,1.0,0,1.0,0,1.0
402,'1',0.0,0.0,98.55,-98.55,0.75808877,0,100.0,0.0,1.0,0.0,0.0,1.0,0,100.0,317.647,15.882,1,1.0,0,1.0,0,1.0,0,1.0,0,1.0
403,'1',0.0,0.0,98.55,-98.55,0.826269,0,100.0,0.0,1.0,0.0,0.0,1.0,0,100.0,317.647,15.882,1,1.0,0,1.0,0,1.0,0,1.0,0,1.0
404,'1',200.51387654,77.4545227,98.55,-98.55,1.05717671,0,100.0,0.0,1.0,0.0,0.0,1.0,1,100.0,317.647,15.882,1,1.0,0,1.0,0,1.0,0,1.0,0,1.0
405,'1',0.0,0.0,98.55,-98.55,0.75808877,0,100.0,0.0,1.0,0.0,0.0,1.0,0,100.0,317.647,15.882,1,1.0,0,1.0,0,1.0,0,1.0,0,1.0
406,'1',0.0,0.0,110.869,-110.869,0.826269,0,100.0,0.0,1.0,0.0,0.0,1.0,0,100.0,357.353,17.868,1,1.0,0,1.0,0,1.0,0,1.0,0,1.0
407,'1',230.34622758,89.42868074,110.869,-110.869,1.05695139,0,100.0,0.0,1.0,0.0,0.0,1.0,1,100.0,357.353,17.868,1,1.0,0,1.0,0,1.0,0,1.0,0,1.0
408,'1',0.0,0.0,98.961,-98.961,0.90952626,0,100.0,0.0,1.0,0.0,0.0,1.0,0,100.0,318.971,15.949,1,1.0,0,1.0,0,1.0,0,1.0,0,1.0
409,'1',0.0,0.0,98.961,-98.961,0.90952626,0,100.0,0.0,1.0,0.0,0.0,1.0,0,100.0,318.971,15.949,1,1.0,0,1.0,0,1.0,0,1.0,0,1.0
410,'1',186.02906064,77.89691249,98.961,-98.961,0.87907522,0,100.0,0.0,1.0,0.0,0.0,1.0,1,100.0,318.971,15.949,1,1.0,0,1.0,0,1.0,0,1.0,0,1.0
411,'1',0.0,0.0,126.582,-126.582,0.826269,0,100.0,0.0,1.0,0.0,0.0,1.0,0,100.0,408.0,20.4,1,1.0,0,1.0,0,1.0,0,1.0,0,1.0
414,'1',0.0,0.0,115.659,-115.659,1.00814499,0,100.0,0.0,1.0,0.0,0.0,1.0,0,100.0,372.794,18.64,1,1.0,0,1.0,0,1.0,0,1.0,0,1.0
415,'1',0.0,0.0,115.659,-115.659,0.90733049,0,100.0,0.0,1.0,0.0,0.0,1.0,0,100.0,372.794,3.0,1,1.0,0,1.0,0,1.0,0,1.0,0,1.0
416,'1',0.0,0.0,115.659,-115.659,1.13416311,0,100.0,0.0,1.0,0.0,0.0,1.0,0,100.0,372.794,18.64,1,1.0,0,1.0,0,1.0,0,1.0,0,1.0
417,'1',317.95079035,121.96614406,143.445,-143.445,0.8747681,0,100.0,0.0,1.0,0.0,0.0,1.0,1,100.0,462.353,23.118,1,1.0,0,1.0,0,1.0,0,1.0,0,1.0
418,'1',0.0,0.0,119.081,-119.081,1.00814499,0,100.0,0.0,1.0,0.0,0.0,1.0,0,100.0,383.824,19.191,1,1.0,0,1.0,0,1.0,0,1.0,0,1.0
419,'1',0.0,0.0,119.081,-119.081,1.00814499,0,100.0,0.0,1.0,0.0,0.0,1.0,0,100.0,383.824,3.615,1,1.0,0,1.0,0,1.0,0,1.0,0,1.0
420,'1',0.0,0.0,114.975,-114.975,0.8248459,0,100.0,0.0,1.0,0.0,0.0,1.0,0,100.0,370.588,18.529,1,1.0,0,1.0,0,1.0,0,1.0,0,1.0
421,'1',0.0,0.0,148.443,-148.443,0.882495,0,100.0,0.0,1.0,0.0,0.0,1.0,0,100.0,478.464,23.923,1,1.0,0,1.0,0,1.0,0,1.0,0,1.0
423,'1',0.0,0.0,30.112,-30.112,0.91939543,0,100.0,0.0,1.0,0.0,0.0,1.0,0,100.0,97.059,4.853,1,1.0,0,1.0,0,1.0,0,1.0,0,1.0
424,'1',56.01601802,16.21708894,30.112,-30.112,1.02635478,0,100.0,0.0,1.0,0.0,0.0,1.0,1,100.0,97.059,4.853,1,1.0,0,1.0,0,1.0,0,1.0,0,1.0
425,'1',0.0,0.0,30.797,-30.797,0.91939543,0,100.0,0.0,1.0,0.0,0.0,1.0,0,100.0,99.265,4.963,1,1.0,0,1.0,0,1.0,0,1.0,0,1.0
426,'1',0.0,0.0,30.797,-30.797,1.01133498,0,100.0,0.0,1.0,0.0,0.0,1.0,0,100.0,99.265,4.963,1,1.0,0,1.0,0,1.0,0,1.0,0,1.0
427,'1',0.0,0.0,30.797,-30.797,0.91939543,0,100.0,0.0,1.0,0.0,0.0,1.0,0,100.0,99.265,4.963,1,1.0,0,1.0,0,1.0,0,1.0,0,1.0
428,'1',0.0,0.0,30.797,-30.797,1.12370553,0,100.0,0.0,1.0,0.0,0.0,1.0,0,100.0,99.265,4.963,1,1.0,0,1.0,0,1.0,0,1.0,0,1.0
430,'1',0.0,0.0,132.769,-132.769,1.01001215,0,100.0,0.0,1.0,0.0,0.0,1.0,0,100.0,427.941,21.397,1,1.0,0,1.0,0,1.0,0,1.0,0,1.0
431,'1',293.42758052,111.0876734,132.769,-132.769,0.87323953,0,100.0,0.0,1.0,0.0,0.0,1.0,1,100.0,427.941,21.397,1,1.0,0,1.0,0,1.0,0,1.0,0,1.0
432,'1',0.0,0.0,80.072,-80.072,0.75750911,0,100.0,0.0,1.0,0.0,0.0,1.0,0,100.0,258.088,12.904,1,1.0,0,1.0,0,1.0,0,1.0,0,1.0
433,'1',0.0,0.0,80.072,-80.072,0.82637357,0,100.0,0.0,1.0,0.0,0.0,1.0,0,100.0,258.088,12.904,1,1.0,0,1.0,0,1.0,0,1.0,0,1.0
444,'99',358.27092539,129.03296466,150.637,-150.637,0.92054809,0,100.0,0.0,1.0,0.0,0.0,1.0,1,100.0,485.535,24.277,1,1.0,0,1.0,0,1.0,0,1.0,0,1.0
445,'99',283.93487261,104.16871367,124.832,-124.832,0.9172633,0,100.0,0.0,1.0,0.0,0.0,1.0,1,100.0,402.359,20.118,1,1.0,0,1.0,0,1.0,0,1.0,0,1.0
452,'1',407.09104697,137.5808395,155.917,-155.917,1.0181024,0,100.0,0.0,1.0,0.0,0.0,1.0,1,100.0,502.554,25.128,1,1.0,0,1.0,0,1.0,0,1.0,0,1.0
453,'1',0.0,0.0,155.856,-155.856,0.98408231,0,100.0,0.0,1.0,0.0,0.0,1.0,0,100.0,502.356,25.118,1,1.0,0,1.0,0,1.0,0,1.0,0,1.0
455,'1',336.31443066,136.40271854,155.644,-155.644,0.92192759,0,100.0,0.0,1.0,0.0,0.0,1.0,1,100.0,501.673,25.084,1,1.0,0,1.0,0,1.0,0,1.0,0,1.0
456,'1',0.0,0.0,155.66,-155.66,0.8850994,0,100.0,0.0,1.0,0.0,0.0,1.0,0,100.0,501.726,25.086,1,1.0,0,1.0,0,1.0,0,1.0,0,1.0
457,'1',0.0,0.0,127.567,-127.567,1.21701167,0,100.0,0.0,1.0,0.0,0.0,1.0,0,100.0,411.176,20.559,1,1.0,0,1.0,0,1.0,0,1.0,0,1.0
458,'1',0.0,0.0,127.567,-127.567,0.97360934,0,100.0,0.0,1.0,0.0,0.0,1.0,0,100.0,411.176,20.559,1,1.0,0,1.0,0,1.0,0,1.0,0,1.0
459,'1',334.73165922,136.07527427,155.49,-155.49,1.02507029,0,100.0,0.0,1.0,0.0,0.0,1.0,1,100.0,501.177,25.059,1,1.0,0,1.0,0,1.0,0,1.0,0,1.0
460,'1',0.0,0.0,125.925,-125.925,0.98408231,0,100.0,0.0,1.0,0.0,0.0,1.0,0,100.0,405.882,20.294,1,1.0,0,1.0,0,1.0,0,1.0,0,1.0
461,'1',0.0,0.0,125.925,-125.925,1.23010289,0,100.0,0.0,1.0,0.0,0.0,1.0,0,100.0,405.882,20.294,1,1.0,0,1.0,0,1.0,0,1.0,0,1.0
462,'1',0.0,0.0,155.811,-155.811,1.09342479,0,100.0,0.0,1.0,0.0,0.0,1.0,0,100.0,502.212,25.111,1,1.0,0,1.0,0,1.0,0,1.0,0,1.0
463,'97',22.21572777,525.00702425,547.5,-547.5,1.15138424,0,100.0,0.0,1.0,0.0,0.0,1.0,1,100.0,40.0,3.0,1,1.0,0,1.0,0,1.0,0,1.0,0,1.0
464,'1',0.0,0.0,155.835,-155.835,1.16066959,0,100.0,0.0,1.0,0.0,0.0,1.0,0,100.0,502.287,25.114,1,1.0,0,1.0,0,1.0,0,1.0,0,1.0
465,'1',365.86685989,133.59528484,155.835,-155.835,1.32251699,0,100.0,0.0,1.0,0.0,0.0,1.0,1,100.0,502.287,22.5,1,1.0,0,1.0,0,1.0,0,1.0,0,1.0
468,'99',267.21997852,125.66004605,145.406,-145.406,0.94678025,0,100.0,0.0,1.0,0.0,0.0,1.0,1,100.0,468.673,23.434,1,1.0,0,1.0,0,1.0,0,1.0,0,1.0
469,'99',298.2959067,270.21900956,288.172,-288.172,0.97768143,0,100.0,0.0,1.0,0.0,0.0,1.0,1,100.0,928.836,46.442,1,1.0,0,1.0,0,1.0,0,1.0,0,1.0
470,'99',643.22041827,384.11246768,404.842,-404.842,0.97671784,0,100.0,0.0,1.0,0.0,0.0,1.0,1,100.0,1304.888,65.244,1,1.0,0,1.0,0,1.0,0,1.0,0,1.0
480,'1',0.0,0.0,227.759,-227.759,0.97971365,0,100.0,0.0,1.0,0.0,0.0,1.0,0,100.0,734.113,36.706,1,1.0,0,1.0,0,1.0,0,1.0,0,1.0
488,'99',120.39788569,52.03562692,63.368,-63.368,0.88837917,0,100.0,0.0,1.0,0.0,0.0,1.0,1,100.0,204.248,10.212,1,1.0,0,1.0,0,1.0,0,1.0,0,1.0
489,'99',122.79356617,56.00118214,63.282,-63.282,1.00085992,0,100.0,0.0,1.0,0.0,0.0,1.0,1,100.0,203.969,10.198,1,1.0,0,1.0,0,1.0,0,1.0,0,1.0
507,'99',25.74364569,9.48866273,13.961,-13.961,0.88320317,0,100.0,0.0,1.0,0.0,0.0,1.0,1,100.0,44.999,3.0,1,1.0,0,1.0,0,1.0,0,1.0,0,1.0
509,'1',0.0,0.0,28.47,-28.47,0.83641714,0,100.0,0.0,1.0,0.0,0.0,1.0,0,100.0,91.765,11.0,1,1.0,0,1.0,0,1.0,0,1.0,0,1.0
527,'1',0.0,0.0,31.481,-31.481,0.82688307,0,100.0,0.0,1.0,0.0,0.0,1.0,0,100.0,101.471,21.0,1,1.0,0,1.0,0,1.0,0,1.0,0,1.0
546,'1',0.0,0.0,98.083,-98.083,0.82573794,0,100.0,0.0,1.0,0.0,0.0,1.0,0,100.0,316.143,15.807,1,1.0,0,1.0,0,1.0,0,1.0,0,1.0
558,'99',19.84393873,7.12892431,9.919,-9.919,0.90511137,0,100.0,0.0,1.0,0.0,0.0,1.0,1,100.0,31.969,3.0,1,1.0,0,1.0,0,1.0,0,1.0,0,1.0
588,'1',0.0,0.0,98.094,-98.094,0.89237159,0,100.0,0.0,1.0,0.0,0.0,1.0,0,100.0,316.177,120.0,1,1.0,0,1.0,0,1.0,0,1.0,0,1.0
589,'1',0.0,0.0,98.094,-98.094,0.89262904,0,100.0,0.0,1.0,0.0,0.0,1.0,0,100.0,316.177,120.0,1,1.0,0,1.0,0,1.0,0,1.0,0,1.0
594,'1',0.0,0.0,93.531,-93.531,0.86141846,0,100.0,0.0,1.0,0.0,0.0,1.0,0,100.0,301.471,135.0,1,1.0,0,1.0,0,1.0,0,1.0,0,1.0
595,'1',0.0,0.0,98.094,-98.094,0.86117423,0,100.0,0.0,1.0,0.0,0.0,1.0,0,100.0,316.177,135.0,1,1.0,0,1.0,0,1.0,0,1.0,0,1.0
595,'2',0.0,0.0,93.531,-93.531,0.86117423,0,100.0,0.0,1.0,0.0,0.0,1.0,0,100.0,301.471,135.0,1,1.0,0,1.0,0,1.0,0,1.0,0,1.0
596,'1',0.0,0.0,99.134,-99.134,1.0242691,0,100.0,0.0,1.0,0.0,0.0,1.0,0,100.0,319.529,135.0,1,1.0,0,1.0,0,1.0,0,1.0,0,1.0
596,'2',0.0,0.0,97.048,-97.048,1.0242691,0,100.0,0.0,1.0,0.0,0.0,1.0,0,100.0,312.807,135.0,1,1.0,0,1.0,0,1.0,0,1.0,0,1.0
600,'2',0.0,0.0,20.075,-20.075,0.88643597,0,100.0,0.0,1.0,0.0,0.0,1.0,0,100.0,64.706,35.833,1,1.0,0,1.0,0,1.0,0,1.0,0,1.0
601,'1',46.00716797,16.13399594,20.075,-20.075,0.84905084,0,100.0,0.0,1.0,0.0,0.0,1.0,1,100.0,64.706,35.833,1,1.0,0,1.0,0,1.0,0,1.0,0,1.0
606,'1',0.0,0.0,6.205,-6.205,0.92613574,0,100.0,0.0,1.0,0.0,0.0,1.0,0,100.0,20.0,3.0,1,1.0,0,1.0,0,1.0,0,1.0,0,1.0
630,'1',9.84216593,2.58782545,5.475,-5.475,0.86187173,0,100.0,0.0,1.0,0.0,0.0,1.0,1,100.0,17.647,3.0,1,1.0,0,1.0,0,1.0,0,1.0,0,1.0
634,'1',0.0,0.0,98.094,-98.094,0.90294632,0,100.0,0.0,1.0,0.0,0.0,1.0,0,100.0,316.177,120.0,1,1.0,0,1.0,0,1.0,0,1.0,0,1.0
653,'2',8.19208988,2.92353419,4.38,-4.38,0.84550851,0,100.0,0.0,1.0,0.0,0.0,1.0,1,100.0,14.118,3.0,1,1.0,0,1.0,0,1.0,0,1.0,0,1.0
654,'1',0.0,0.0,92.345,-92.345,0.92478522,0,100.0,0.0,1.0,0.0,0.0,1.0,0,100.0,297.647,14.882,1,1.0,0,1.0,0,1.0,0,1.0,0,1.0
686,'99',48.99839444,25.6575097,30.606,-30.606,0.8586601,0,100.0,0.0,1.0,0.0,0.0,1.0,1,100.0,98.648,4.932,1,1.0,0,1.0,0,1.0,0,1.0,0,1.0
687,'1',0.0,0.0,93.531,-93.531,0.96780839,0,100.0,0.0,1.0,0.0,0.0,1.0,0,100.0,301.471,135.0,1,1.0,0,1.0,0,1.0,0,1.0,0,1.0
689,'2',217.53441281,90.20340378,93.531,-93.531,0.92835348,0,100.0,0.0,1.0,0.0,0.0,1.0,1,100.0,301.471,135.0,1,1.0,0,1.0,0,1.0,0,1.0,0,1.0
694,'1',201.07278572,49.15541215,91.98,-91.98,1.0291419,0,100.0,0.0,1.0,0.0,0.0,1.0,1,100.0,296.471,14.824,1,1.0,0,1.0,0,1.0,0,1.0,0,1.0
695,'1',0.0,0.0,94.17,-94.17,0.910931,0,100.0,0.0,1.0,0.0,0.0,1.0,0,100.0,303.529,15.176,1,1.0,0,1.0,0,1.0,0,1.0,0,1.0
696,'1',0.0,0.0,97.82,-97.82,1.02789524,0,100.0,0.0,1.0,0.0,0.0,1.0,0,100.0,315.294,15.765,1,1.0,0,1.0,0,1.0,0,1.0,0,1.0
697,'99',263.36487125,-110.45773141,145.304,-145.304,0.96263109,0,100.0,0.0,1.0,0.0,0.0,1.0,1,100.0,468.346,23.417,1,1.0,0,1.0,0,1.0,0,1.0,0,1.0
701,'1',0.0,0.0,91.98,-91.98,0.91539679,0,100.0,0.0,1.0,0.0,0.0,1.0,0,100.0,296.471,14.824,1,1.0,0,1.0,0,1.0,0,1.0,0,1.0
704,'2',0.0,0.0,4.745,-4.745,0.83477257,0,100.0,0.0,1.0,0.0,0.0,1.0,0,100.0,15.294,2.0,1,1.0,0,1.0,0,1.0,0,1.0,0,1.0
708,'2',0.0,0.0,24.234,-24.234,0.90377937,0,100.0,0.0,1.0,0.0,0.0,1.0,0,100.0,78.112,26.0,1,1.0,0,1.0,0,1.0,0,1.0,0,1.0
710,'99',44.40173535,-23.75401744,27.874,-27.874,0.89815563,0,100.0,0.0,1.0,0.0,0.0,1.0,1,100.0,89.845,4.492,1,1.0,0,1.0,0,1.0,0,1.0,0,1.0
732,'1',0.0,0.0,103.295,-103.295,0.91036652,0,100.0,0.0,1.0,0.0,0.0,1.0,0,100.0,332.941,16.647,1,1.0,0,1.0,0,1.0,0,1.0,0,1.0
733,'1',0.0,0.0,5.475,-5.475,0.86782837,0,100.0,0.0,1.0,0.0,0.0,1.0,0,100.0,17.647,3.0,1,1.0,0,1.0,0,1.0,0,1.0,0,1.0
739,'1',179.77499138,-44.15963576,96.36,-96.36,0.86544704,0,100.0,0.0,1.0,0.0,0.0,1.0,1,100.0,310.588,15.529,1,1.0,0,1.0,0,1.0,0,1.0,0,1.0
756,'3',356.33353473,-32.76074425,157.406,-157.406,0.67692666,0,100.0,0.0,1.0,0.0,0.0,1.0,1,100.0,507.353,240.0,1,1.0,0,1.0,0,1.0,0,1.0,0,1.0
757,'1',0.0,0.0,168.812,-168.812,0.65181589,0,100.0,0.0,1.0,0.0,0.0,1.0,0,100.0,544.118,240.0,1,1.0,0,1.0,0,1.0,0,1.0,0,1.0
757,'2',308.29936311,66.52365568,135.05,-135.05,0.65181589,0,100.0,0.0,1.0,0.0,0.0,1.0,1,100.0,435.294,240.0,1,1.0,0,1.0,0,1.0,0,1.0,0,1.0
758,'1',1062.39392936,192.71387934,617.946,-617.946,0.73774808,0,100.0,0.0,1.0,0.0,0.0,1.0,1,100.0,1991.769,5.0,1,1.0,0,1.0,0,1.0,0,1.0,0,1.0
758,'2',1075.83103271,192.71387934,617.946,-617.946,0.73774808,0,100.0,0.0,1.0,0.0,0.0,1.0,1,100.0,1991.769,5.0,1,1.0,0,1.0,0,1.0,0,1.0,0,1.0
758,'3',1065.44668991,192.71387934,617.946,-617.946,0.73774808,0,100.0,0.0,1.0,0.0,0.0,1.0,1,100.0,1991.769,5.0,1,1.0,0,1.0,0,1.0,0,1.0,0,1.0
759,'1',357.92511621,15.76600317,168.812,-168.812,0.73650392,0,100.0,0.0,1.0,0.0,0.0,1.0,1,100.0,544.118,240.0,1,1.0,0,1.0,0,1.0,0,1.0,0,1.0
759,'2',0.0,0.0,155.125,-155.125,0.73650392,0,100.0,0.0,1.0,0.0,0.0,1.0,0,100.0,500.0,240.0,1,1.0,0,1.0,0,1.0,0,1.0,0,1.0
759,'3',351.9750308,13.33424933,155.125,-155.125,0.73650392,0,100.0,0.0,1.0,0.0,0.0,1.0,1,100.0,500.0,240.0,1,1.0,0,1.0,0,1.0,0,1.0,0,1.0
784,'1',315.47166645,140.55829852,159.688,-159.688,0.73265054,0,100.0,0.0,1.0,0.0,0.0,1.0,1,100.0,514.706,240.0,1,1.0,0,1.0,0,1.0,0,1.0,0,1.0
792,'1',0.0,0.0,10.95,-10.95,0.63073688,0,100.0,0.0,1.0,0.0,0.0,1.0,0,100.0,35.294,3.0,1,1.0,0,1.0,0,1.0,0,1.0,0,1.0
805,'1',0.0,0.0,100.74,-100.74,0.81674729,0,100.0,0.0,1.0,0.0,0.0,1.0,0,100.0,324.706,16.235,1,1.0,0,1.0,0,1.0,0,1.0,0,1.0
805,'2',0.0,0.0,96.36,-96.36,0.81674729,0,100.0,0.0,1.0,0.0,0.0,1.0,0,100.0,310.588,15.529,1,1.0,0,1.0,0,1.0,0,1.0,0,1.0
805,'3',90.83896746,83.72620753,100.01,-100.01,0.81674729,0,100.0,0.0,1.0,0.0,0.0,1.0,1,100.0,322.353,16.118,1,1.0,0,1.0,0,1.0,0,1.0,0,1.0
809,'1',0.0,0.0,21.9,-21.9,0.67269664,0,100.0,0.0,1.0,0.0,0.0,1.0,0,100.0,70.588,25.0,1,1.0,0,1.0,0,1.0,0,1.0,0,1.0
812,'1',79.11806474,84.75413061,97.455,-97.455,0.7933216,0,100.0,0.0,1.0,0.0,0.0,1.0,1,100.0,314.118,1.667,1,1.0,0,1.0,0,1.0,0,1.0,0,1.0
830,'1',0.0,0.0,100.74,-100.74,0.68686944,0,100.0,0.0,1.0,0.0,0.0,1.0,0,100.0,324.706,16.235,1,1.0,0,1.0,0,1.0,0,1.0,0,1.0
...
0 / END OF GENERATOR DATA BEGIN BRANCH DATA
1,2,'1',2e-05,0.00021,0.0,2190.0,3942.0,3942.0,0.0,0.0,0.0,0.0,1,1,0.0,1,1.0,0,1.0,0,1.0,0,1.0
1,10,'1',0.00593,0.04093,0.07215,852.5,1534.5,1534.5,0.0,0.0,0.0,0.0,1,1,0.0,1,1.0,0,1.0,0,1.0,0,1.0
2,507,'1',0.0001,0.01,0.0,209.25,376.65,376.65,0.0,0.0,0.0,0.0,1,1,0.0,1,1.0,0,1.0,0,1.0,0,1.0
3,4,'1',2e-05,0.00021,0.0,2190.0,3942.0,3942.0,0.0,0.0,0.0,0.0,1,1,0.0,1,1.0,0,1.0,0,1.0,0,1.0
3,8,'1',0.00777,0.04128,0.06391,492.5,886.5,886.5,0.0,0.0,0.0,0.0,1,1,0.0,1,1.0,0,1.0,0,1.0,0,1.0
4,1027,'1',0.0001,0.01,0.0,496.95,894.525,894.525,0.0,0.0,0.0,0.0,1,1,0.0,1,1.0,0,1.0,0,1.0,0,1.0
5,6,'1',2e-05,0.00021,0.0,2190.0,3942.0,3942.0,0.0,0.0,0.0,0.0,1,1,0.0,1,1.0,0,1.0,0,1.0,0,1.0
5,9,'1',0.00488,0.03362,0.05961,852.5,1534.5,1534.5,0.0,0.0,0.0,0.0,1,1,0.0,1,1.0,0,1.0,0,1.0,0,1.0
6,217,'1',0.0001,0.01,0.0,1113.775,2004.775,2004.775,0.0,0.0,0.0,0.0,1,1,0.0,1,1.0,0,1.0,0,1.0,0,1.0
7,8,'1',2e-05,0.00021,0.0,2190.0,3942.0,3942.0,0.0,0.0,0.0,0.0,1,1,0.0,1,1.0,0,1.0,0,1.0,0,1.0
7,10,'1',0.00455,0.03157,0.05531,577.5,1039.5,1039.5,0.0,0.0,0.0,0.0,1,1,0.0,1,1.0,0,1.0,0,1.0,0,1.0
9,10,'1',2e-05,0.00021,0.0,2190.0,3942.0,3942.0,0.0,0.0,0.0,0.0,1,1,0.0,1,1.0,0,1.0,0,1.0,0,1.0
9,2095,'1',0.0001,0.01,0.0,351.275,632.275,632.275,0.0,0.0,0.0,0.0,1,1,0.0,1,1.0,0,1.0,0,1.0,0,1.0
11,23,'1',0.03868,0.10116,0.0108,219.025,394.25,394.25,0.0,0.0,0.0,0.0,1,1,0.0,1,1.0,0,1.0,0,1.0,0,1.0
11,26,'1',0.00719,0.02248,0.00246,125.0,225.0,225.0,0.0,0.0,0.0,0.0,1,1,0.0,1,1.0,0,1.0,0,1.0,0,1.0
11,43,'1',0.01636,0.04132,0.0045,125.0,225.0,225.0,0.0,0.0,0.0,0.0,1,1,0.0,1,1.0,0,1.0,0,1.0,0,1.0
12,14,'1',0.00752,0.02207,0.00251,200.55,361.0,361.0,0.0,0.0,0.0,0.0,1,1,0.0,1,1.0,0,1.0,0,1.0,0,1.0
12,25,'1',0.00719,0.02256,0.00247,125.0,225.0,225.0,0.0,0.0,0.0,0.0,1,1,0.0,1,1.0,0,1.0,0,1.0,0,1.0
13,59,'1',0.02256,0.04314,0.004,125.0,225.0,225.0,0.0,0.0,0.0,0.0,1,1,0.0,1,1.0,0,1.0,0,1.0,0,1.0
14,245,'1',0.0001,0.01,0.0,209.25,376.65,376.65,0.0,0.0,0.0,0.0,1,1,0.0,1,1.0,0,1.0,0,1.0,0,1.0
15,16,'1',0.00058,0.00157,0.00021,125.0,225.0,225.0,0.0,0.0,0.0,0.0,1,1,0.0,1,1.0,0,1.0,0,1.0,0,1.0
16,58,'1',0.00107,0.00298,0.0004,281.8,507.25,507.25,0.0,0.0,0.0,0.0,1,1,0.0,1,1.0,0,1.0,0,1.0,0,1.0
16,64,'1',0.00182,0.00529,0.00071,278.475,501.25,501.25,0.0,0.0,0.0,0.0,1,1,0.0,1,1.0,0,1.0,0,1.0,0,1.0
17,20,'1',0.00496,0.0162,0.00164,187.5,337.5,337.5,0.0,0.0,0.0,0.0,1,1,0.0,1,1.0,0,1.0,0,1.0,0,1.0
18,62,'1',0.00033,0.00099,0.00013,125.0,225.0,225.0,0.0,0.0,0.0,0.0,1,1,0.0,1,1.0,0,1.0,0,1.0,0,1.0
19,63,'1',0.00033,0.00091,0.00012,125.0,225.0,225.0,0.0,0.0,0.0,0.0,1,1,0.0,1,1.0,0,1.0,0,1.0,0,1.0
20,28,'1',0.00934,0.0257,0.00253,157.5,283.5,283.5,0.0,0.0,0.0,0.0,1,1,0.0,1,1.0,0,1.0,0,1.0,0,1.0
20,30,'1',0.01504,0.04033,0.00401,157.5,283.5,283.5,0.0,0.0,0.0,0.0,1,1,0.0,1,1.0,0,1.0,0,1.0,0,1.0
21,22,'1',8e-05,0.00083,0.0,1095.0,1971.0,1971.0,0.0,0.0,0.0,0.0,1,1,0.0,1,1.0,0,1.0,0,1.0,0,1.0
21,44,'1',0.00512,0.01669,0.00168,285.0,513.0,513.0,0.0,0.0,0.0,0.0,1,1,0.0,1,1.0,0,1.0,0,1.0,0,1.0
22,46,'1',0.02826,0.0924,0.00933,247.5,445.5,445.5,0.0,0.0,0.0,0.0,1,1,0.0,1,1.0,0,1.0,0,1.0,0,1.0
24,46,'1',0.01669,0.04364,0.00566,265.95,478.7,478.7,0.0,0.0,0.0,0.0,1,1,0.0,1,1.0,0,1.0,0,1.0,0,1.0
24,271,'1',0.0001,0.01,0.0,209.25,376.65,376.65,0.0,0.0,0.0,0.0,1,1,0.0,1,1.0,0,1.0,0,1.0,0,1.0
25,26,'1',8e-05,0.00083,0.0,125.0,225.0,225.0,0.0,0.0,0.0,0.0,1,1,0.0,1,1.0,0,1.0,0,1.0,0,1.0
25,38,'1',0.01595,0.0414,0.00404,125.0,225.0,225.0,0.0,0.0,0.0,0.0,1,1,0.0,1,1.0,0,1.0,0,1.0,0,1.0
26,37,'1',0.01595,0.04132,0.00403,125.0,225.0,225.0,0.0,0.0,0.0,0.0,1,1,0.0,1,1.0,0,1.0,0,1.0,0,1.0
26,41,'1',0.02926,0.0514,0.00489,125.0,225.0,225.0,0.0,0.0,0.0,0.0,1,1,0.0,1,1.0,0,1.0,0,1.0,0,1.0
27,28,'1',0.00554,0.00959,0.00095,125.0,225.0,225.0,0.0,0.0,0.0,0.0,1,1,0.0,1,1.0,0,1.0,0,1.0,0,1.0
28,64,'1',0.0057,0.01479,0.0015,157.5,283.5,283.5,0.0,0.0,0.0,0.0,1,1,0.0,1,1.0,0,1.0,0,1.0,0,1.0
29,30,'1',0.00017,0.00041,6e-05,187.5,337.5,337.5,0.0,0.0,0.0,0.0,1,1,0.0,1,1.0,0,1.0,0,1.0,0,1.0
30,65,'1',8e-05,0.00025,2e-05,187.5,337.5,337.5,0.0,0.0,0.0,0.0,1,1,0.0,1,1.0,0,1.0,0,1.0,0,1.0
31,32,'1',8e-05,0.00083,0.0,1095.0,1971.0,1971.0,0.0,0.0,0.0,0.0,1,1,0.0,1,1.0,0,1.0,0,1.0,0,1.0
31,69,'1',0.01298,0.04074,0.0045,187.5,337.5,337.5,0.0,0.0,0.0,0.0,1,1,0.0,1,1.0,0,1.0,0,1.0,0,1.0
32,530,'1',0.0001,0.01,0.0,209.25,376.65,376.65,0.0,0.0,0.0,0.0,1,1,0.0,1,1.0,0,1.0,0,1.0,0,1.0
33,34,'1',0.00165,0.00537,0.00054,125.0,225.0,225.0,0.0,0.0,0.0,0.0,1,1,0.0,1,1.0,0,1.0,0,1.0,0,1.0
34,54,'1',0.01926,0.06198,0.00647,258.225,464.8,464.8,0.0,0.0,0.0,0.0,1,1,0.0,1,1.0,0,1.0,0,1.0,0,1.0
34,68,'1',0.01041,0.03388,0.00346,285.2,513.35,513.35,0.0,0.0,0.0,0.0,1,1,0.0,1,1.0,0,1.0,0,1.0,0,1.0
35,37,'1',0.0005,0.00107,0.00014,125.0,225.0,225.0,0.0,0.0,0.0,0.0,1,1,0.0,1,1.0,0,1.0,0,1.0,0,1.0
36,38,'1',0.0005,0.00116,0.00014,125.0,225.0,225.0,0.0,0.0,0.0,0.0,1,1,0.0,1,1.0,0,1.0,0,1.0,0,1.0
37,64,'1',0.03174,0.08347,0.00816,125.0,225.0,225.0,0.0,0.0,0.0,0.0,1,1,0.0,1,1.0,0,1.0,0,1.0,0,1.0
38,65,'1',0.03174,0.08347,0.00816,125.0,225.0,225.0,0.0,0.0,0.0,0.0,1,1,0.0,1,1.0,0,1.0,0,1.0,0,1.0
39,66,'1',0.03826,0.04818,0.00455,209.575,377.225,377.225,0.0,0.0,0.0,0.0,1,1,0.0,1,1.0,0,1.0,0,1.0,0,1.0
39,1234,'1',0.0001,0.01,0.0,209.25,376.65,376.65,0.0,0.0,0.0,0.0,1,1,0.0,1,1.0,0,1.0,0,1.0,0,1.0
40,41,'1',8e-05,0.00083,0.0,1095.0,1971.0,1971.0,0.0,0.0,0.0,0.0,1,1,0.0,1,1.0,0,1.0,0,1.0,0,1.0
40,59,'1',0.04025,0.07132,0.00662,117.5,211.5,211.5,0.0,0.0,0.0,0.0,1,1,0.0,1,1.0,0,1.0,0,1.0,0,1.0
42,43,'1',0.00058,0.00099,0.0001,125.0,225.0,225.0,0.0,0.0,0.0,0.0,1,1,0.0,1,1.0,0,1.0,0,1.0,0,1.0
43,2259,'1',0.0001,0.01,0.0,125.0,225.0,225.0,0.0,0.0,0.0,0.0,1,1,0.0,1,1.0,0,1.0,0,1.0,0,1.0
44,45,'1',8e-05,0.00083,0.0,1095.0,1971.0,1971.0,0.0,0.0,0.0,0.0,1,1,0.0,1,1.0,0,1.0,0,1.0,0,1.0
44,1951,'1',0.0001,0.01,0.0,209.25,376.65,376.65,0.0,0.0,0.0,0.0,1,1,0.0,1,1.0,0,1.0,0,1.0,0,1.0
45,52,'1',0.03438,0.11107,0.01156,125.0,225.0,225.0,0.0,0.0,0.0,0.0,1,1,0.0,1,1.0,0,1.0,0,1.0,0,1.0
45,70,'1',0.01041,0.03405,0.00418,285.0,513.0,513.0,0.0,0.0,0.0,0.0,1,1,0.0,1,1.0,0,1.0,0,1.0,0,1.0
46,49,'1',0.03488,0.0881,0.01298,294.3,529.75,529.75,0.0,0.0,0.0,0.0,1,1,0.0,1,1.0,0,1.0,0,1.0,0,1.0
46,53,'1',0.00669,0.0162,0.00254,390.35,702.6,702.6,0.0,0.0,0.0,0.0,1,1,0.0,1,1.0,0,1.0,0,1.0,0,1.0
46,761,'1',16.69,43.64,0.00566,265.95,478.7,478.7,0.0,0.0,0.0,0.0,1,1,0.0,1,1.0,0,1.0,0,1.0,0,1.0
46,2246,'1',0.0001,0.01,0.0,209.25,376.65,376.65,0.0,0.0,0.0,0.0,1,1,0.0,1,1.0,0,1.0,0,1.0,0,1.0
47,48,'1',8e-05,0.00083,0.0,1095.0,1971.0,1971.0,0.0,0.0,0.0,0.0,1,1,0.0,1,1.0,0,1.0,0,1.0,0,1.0
47,69,'1',0.0038,0.01083,0.00145,187.5,337.5,337.5,0.0,0.0,0.0,0.0,1,1,0.0,1,1.0,0,1.0,0,1.0,0,1.0
48,61,'1',0.00711,0.02074,0.00265,187.5,337.5,337.5,0.0,0.0,0.0,0.0,1,1,0.0,1,1.0,0,1.0,0,1.0,0,1.0
49,1344,'1',0.0001,0.01,0.0,216.75,390.15,390.15,0.0,0.0,0.0,0.0,1,1,0.0,1,1.0,0,1.0,0,1.0,0,1.0
50,51,'1',0.00017,0.00041,5e-05,125.0,225.0,225.0,0.0,0.0,0.0,0.0,1,1,0.0,1,1.0,0,1.0,0,1.0,0,1.0
...